
# total energy =    -72.26489491

CRYSTAL
PRIMVEC
 4.925485114 -0.000321250 0.000231089
 -2.461865969 4.267029427 0.000576907
 -0.000649899 0.000506110 5.434682168
PRIMCOORD
9 1 
Si     -0.14477      4.26716      5.43528         0.011527      0.000871     -0.005700
Si     -1.13158      1.99278      3.62328        -0.003986      0.007339      0.000500
Si      1.33115      2.27358      1.81182        -0.007415     -0.008934      0.008539
O      1.36942      1.15787      0.62672         0.006831     -0.003260     -0.008472
O      0.34607      1.74959      2.99768        -0.014935      0.012922     -0.016589
O      3.26484      0.59221      4.25058        -0.002569      0.006985      0.012376
O      0.80191      3.67422      1.18558         0.007510     -0.010830     -0.009532
O      2.80895      2.51603      2.43759        -0.021749     -0.012103      0.010666
O     -1.09308      3.10947      4.80751         0.008160      0.003376      0.006513
