
# total energy =    -71.77253879

CRYSTAL
PRIMVEC
 4.908269732 -0.000320127 0.000230282
 -2.446064739 4.225671337 0.000570937
 -0.025915435 -0.043124226 5.405380981
PRIMCOORD
9 1 
Si     -0.10684      4.14115      5.34049        -0.575438     -0.199015      1.311421
Si      3.76769      1.89671      3.58984        -0.952163      0.572992      2.300951
Si      1.32304      2.27059      1.80903         1.059142     -1.281886      0.016362
O      1.57715      1.19167      0.56303        -1.480485      1.868656      1.621811
O      0.25256      1.67460      2.92252         2.471525     -0.088028     -1.526207
O      3.27872      0.48369      4.21191         1.164688      0.401791     -1.462309
O      0.80883      3.64669      1.18056         0.209669     -0.172739      0.104920
O      2.73420      2.58104      2.61973        -2.294679     -0.018476     -2.276493
O     -1.14466      3.06560      4.77403         0.400759     -1.085833     -0.077283
