
# total energy =    -71.74170049

CRYSTAL
PRIMVEC
 4.918267913 -0.000320779 0.000230751
 -2.452081370 4.240329634 0.000573034
 -0.020092037 -0.033151675 5.417382522
PRIMCOORD
9 1 
Si      2.34253      0.02174      0.06845         1.391171     -1.013576     -1.281584
Si      3.71115      1.92350      3.55054         1.807110     -1.242039      1.820866
Si      1.25611      2.31692      1.78426         0.755708     -1.044463      0.092452
O      1.45489      1.22299      0.59758        -0.791683      0.270121     -0.422495
O      0.22621      1.64835      2.79389        -0.868117     -0.089902      0.789157
O      3.33340      0.46736      4.27367        -0.318752      1.260946     -0.530782
O      0.90072      3.78528      1.30197        -1.283609      0.807360     -1.117803
O      2.72188      2.47377      2.44008         0.036044      0.432080      0.477527
O     -0.87214      2.91787      4.82864        -0.711423      0.635996      0.176723
