
# total energy =    -71.69038287

CRYSTAL
PRIMVEC
 4.924384906 -0.000321178 0.000231038
 -2.460381218 4.267673454 0.000577081
 -0.002150810 0.002516074 5.434463519
PRIMCOORD
9 1 
Si     -0.17296      4.23900      5.37230         1.764449     -0.941182     -0.967459
Si     -1.15985      2.04341      3.63014         1.147797     -0.854117     -0.917759
Si      1.35176      2.22730      1.87325        -0.551784      0.345985     -1.640888
O      1.51329      1.03782      0.71786        -2.541933      3.659739      2.248487
O      0.43673      1.80926      3.16000        -0.888220      0.071555     -0.367985
O      3.32479      0.60919      4.25923        -0.388271      0.250637      0.079886
O      0.65551      3.53876      1.11787         1.711157     -1.981809      1.070760
O      2.84639      2.58783      2.39633        -0.098246     -0.500132     -0.162821
O     -1.21961      3.27173      4.64216        -0.132640     -0.050739      0.698673
