
# total energy =    -71.82024826

CRYSTAL
PRIMVEC
 4.897529803 -0.000319426 0.000229778
 -2.440342606 4.214542333 0.000569400
 -0.031482116 -0.046032823 5.393954115
PRIMCOORD
9 1 
Si     -0.14610      4.16855      5.37075        -0.623388     -0.124587      0.636717
Si      3.74262      1.89549      3.52928         0.288594      0.377635      3.625128
Si      1.35211      2.26539      1.85182        -0.041059     -0.603347     -0.035932
O      1.47306      1.25202      0.61119         0.227830     -1.484770     -0.722209
O      0.34418      1.68852      3.02713         1.653261      0.060385     -0.860530
O      3.23425      0.42279      4.12368         0.235252      1.362396     -0.376585
O      0.78326      3.58349      1.18910        -0.415132      1.666928     -0.312699
O      2.87751      2.53784      2.37104        -1.305960      0.147451     -0.340401
O     -1.17073      3.02900      4.83859        -0.009578     -1.393298     -1.607651
