
# total energy =    -71.76161945

CRYSTAL
PRIMVEC
 4.914443888 -0.000320529 0.000230571
 -2.449320656 4.233647787 0.000572079
 -0.024125960 -0.039396600 5.412213740
PRIMCOORD
9 1 
Si      2.38795      0.05117      0.00584         0.483864     -0.807942      0.513736
Si     -1.09503      1.98781      3.64603        -1.132199     -1.673817      0.352817
Si      1.30053      2.23792      1.73400         0.120278     -0.540676      0.711339
O      1.28620      1.12694      0.45340         0.302286      1.846662      1.946511
O      0.19135      1.63123      2.78413         1.339920      0.271727     -0.560750
O      3.27963      0.52935      4.23589         0.999257      1.086436     -0.764006
O      0.88765      3.71161      1.21494        -0.197065      0.275951     -0.112432
O      2.67667      2.46717      2.62130        -1.113173      0.297447     -1.303095
O     -0.90522      2.96538      4.91380        -0.793050     -0.745218     -0.743431
