
# total energy =    -71.79647913

CRYSTAL
PRIMVEC
 4.874738008 -0.000317940 0.000228708
 -2.425555664 4.187545387 0.000565713
 -0.048871650 -0.058702069 5.367757048
PRIMCOORD
9 1 
Si     -0.16099      4.11368      5.34665        -0.910988      0.976083      0.646184
Si      3.69188      1.88632      3.56357         2.198420      0.104365     -2.276675
Si      1.33680      2.25644      1.81317        -0.920701      0.041082      0.510176
O      1.34800      1.11534      0.71501         0.201918     -1.790797     -2.420867
O      0.38103      1.69640      3.02627        -0.054504      0.465413     -0.126121
O      3.28063      0.50123      4.20229        -1.016409     -0.930989      0.403089
O      0.87406      3.67707      1.16647        -0.142890     -0.744739      0.197588
O      2.87510      2.38269      2.24255         0.546049      0.266880      1.241289
O     -1.14879      3.02454      4.64802         0.095696      1.591859      1.827615
