
# total energy =    -71.66592075

CRYSTAL
PRIMVEC
 4.918608491 -0.000320801 0.000230767
 -2.452281302 4.241373479 0.000573194
 -0.019269088 -0.031860791 5.418078267
PRIMCOORD
9 1 
Si      2.33685     -0.00018      0.06230         1.234972     -0.526100     -1.411879
Si      3.71779      1.91022      3.56734         1.569324     -0.603906     -0.721007
Si      1.27037      2.32026      1.79475         0.489660     -0.756094     -0.906250
O      1.49650      1.23714      0.60542        -0.933999     -0.050774     -0.873922
O      0.27523      1.66072      2.79857        -2.745319     -0.570457      1.989918
O      3.32189      0.49564      4.25368        -0.733411     -0.196205      0.325800
O      0.87228      3.78520      1.31767        -1.267448      0.663478     -1.497262
O      2.69601      2.48279      2.44023         2.315589      0.237468      1.737193
O     -0.92285      2.92081      4.78923         0.079800      1.799585      1.360008
