
# total energy =    -71.73225501

CRYSTAL
PRIMVEC
 4.845333627 -0.000316022 0.000227329
 -2.406726133 4.147326158 0.000560070
 -0.071641664 -0.083062760 5.327683525
PRIMCOORD
9 1 
Si      2.24695      0.01180      0.03865         1.857874     -0.628309     -2.315586
Si     -1.06842      1.82466      3.50153        -1.522894     -1.891235      0.165442
Si      1.29232      2.28361      1.77952         1.170860      0.308535     -1.852940
O      1.38791      1.24957      0.45866        -1.619236      2.033001      0.980382
O      0.37422      1.53659      2.83592        -0.407242     -0.134398      0.806889
O      3.23544      0.35221      4.11795        -0.458872      0.802147      0.074636
O      0.74211      3.78282      1.32653         0.663070     -1.846323      0.570008
O      2.82578      2.44055      2.29549         0.220848     -0.035465      1.053690
O     -1.03305      2.75826      4.80640         0.125917      1.388690      0.517604
