
# total energy =    -71.64561539

CRYSTAL
PRIMVEC
 4.922037087 -0.000321025 0.000230928
 -2.457572467 4.263500544 0.000576536
 -0.008538265 -0.003004575 5.431345140
PRIMCOORD
9 1 
Si      2.32864      0.01765      0.06659        -1.516064      0.145069     -0.403628
Si     -1.10903      2.00757      3.61978        -1.112823      1.186488      0.744270
Si      1.35284      2.21192      1.76331        -0.541062      0.447809      0.606808
O      1.10753      0.90883      0.76475         1.659639      1.412073      0.269505
O      0.34530      1.87654      3.02978         2.093052     -0.216021     -0.656672
O      3.18811      0.70954      4.34664         0.755464      0.792737     -0.496918
O      0.94735      3.70952      1.11024         0.402655     -2.045086      1.010010
O      2.90698      2.34442      2.29718        -1.276841      0.123440     -0.292163
O     -1.09572      3.25838      4.70733        -0.503247     -1.834263     -0.756193
