
# total energy =    -71.55931309

CRYSTAL
PRIMVEC
 4.919235925 -0.000320842 0.000230796
 -2.453644985 4.251097907 0.000574708
 -0.012633574 -0.017135486 5.423300016
PRIMCOORD
9 1 
Si      2.26989      0.00361      5.39527         0.882761      0.103451     -1.429043
Si     -1.06879      2.00475      3.63732        -1.556552     -1.123783      1.722303
Si      1.38917      2.22958      1.82953        -0.934896      1.385311      0.588514
O      1.42382      1.27702      0.52217         0.364355     -0.630955      0.549321
O      0.39061      1.65832      3.07188         1.513905      0.678715     -1.443364
O      3.29588      0.46546      4.14136        -0.441156      1.529585      0.809727
O      0.63417      3.51853      1.11536         1.548124     -0.096028      2.076671
O      2.85414      2.59959      2.50541        -1.341813     -0.418526     -1.264130
O     -1.21679      3.13580      4.86769        -0.024770     -1.450067     -1.608125
