
# total energy =    -71.81676293

CRYSTAL
PRIMVEC
 4.874448002 -0.000317921 0.000228695
 -2.425364290 4.187106664 0.000565651
 -0.049087488 -0.058984718 5.367363354
PRIMCOORD
9 1 
Si     -0.15472      4.11536      5.34704        -1.200703      0.690647      0.264299
Si      3.69070      1.88458      3.56175         2.286680      0.271575     -2.037923
Si      1.33878      2.25312      1.81439        -1.156652      0.049939      0.242516
O      1.35968      1.11118      0.70843         0.003249     -1.377940     -2.103972
O      0.38360      1.69538      3.02862        -0.136654      0.473064     -0.164500
O      3.28081      0.50061      4.19955        -0.969702     -0.982586      0.381331
O      0.86761      3.67791      1.16388         0.132071     -1.060903      0.470091
O      2.86646      2.38469      2.25254         0.712010      0.302271      1.139254
O     -1.16147      3.02924      4.64483         0.317562      1.620694      1.834240
