
# total energy =    -71.79480196

CRYSTAL
PRIMVEC
 4.897846412 -0.000319447 0.000229793
 -2.440565833 4.214853232 0.000569440
 -0.031223977 -0.045950436 5.394286061
PRIMCOORD
9 1 
Si      2.29298     -0.04294      5.37422        -0.441432     -0.453376      0.265066
Si      3.73464      1.89623      3.52746         0.594994      0.188379      3.855697
Si      1.35088      2.26849      1.85466         0.010858     -0.813617     -0.114346
O      1.48704      1.24792      0.60995        -0.014403     -1.017152     -0.345986
O      0.33960      1.68613      3.02619         1.679587      0.099182     -0.954981
O      3.24383      0.41246      4.12337         0.137462      1.482124     -0.351732
O      0.78410      3.58141      1.18682        -0.414561      1.658452     -0.287750
O      2.87943      2.54447      2.37405        -1.564554      0.190794     -0.577757
O     -1.17263      3.03120      4.83416         0.029157     -1.327932     -1.502647
