
# total energy =    -71.72784234

CRYSTAL
PRIMVEC
 4.921434871 -0.000320985 0.000230899
 -2.456701416 4.260002254 0.000576009
 -0.010099975 -0.007165015 5.429060554
PRIMCOORD
9 1 
Si     -0.15141      4.23227      0.05232         0.432819      0.545602      0.128728
Si     -1.14395      1.99887      3.53398        -0.018090     -0.652118      1.517108
Si      1.31362      2.26050      1.77262         0.428323     -0.472500      1.565803
O      1.26905      0.99949      0.81495         0.178977     -1.164872     -1.771142
O      0.39114      1.90160      3.05191        -0.218405     -0.661657      0.108668
O      3.22323      0.65340      4.33462         0.478704      0.899436     -0.566561
O      0.93792      3.70712      1.24408        -1.783334      0.958165     -2.173667
O      2.84110      2.35732      2.27847         0.814595      0.407660      0.421064
O     -1.08276      3.16243      4.67717        -0.328357      0.122640      0.758668
