
# total energy =    -71.70357972

CRYSTAL
PRIMVEC
 4.918025618 -0.000320763 0.000230739
 -2.451912602 4.239699536 0.000572939
 -0.020586945 -0.033891825 5.416955059
PRIMCOORD
9 1 
Si      2.35158      0.03095      0.06682         1.052031     -0.867984     -1.064136
Si      3.71442      1.92672      3.54636         1.491822     -1.266159      3.262697
Si      1.25054      2.31079      1.77772         0.656033     -0.840549      0.619619
O      1.42402      1.21610      0.58920        -0.529325      0.235606     -0.300850
O      0.18845      1.63976      2.79821         0.978346      0.188656     -0.279769
O      3.33752      0.45808      4.28273        -0.095000      1.816934     -0.943647
O      0.90846      3.79114      1.28392        -0.931933      0.310787     -0.471621
O      2.74015      2.47126      2.44491        -1.415330      0.588699     -0.296764
O     -0.84601      2.92197      4.85481        -1.201406     -0.135795     -0.547093
