
# total energy =    -71.57753838

CRYSTAL
PRIMVEC
 4.860215901 -0.000316993 0.000228027
 -2.415558951 4.167508352 0.000562930
 -0.059752055 -0.070646297 5.348099823
PRIMCOORD
9 1 
Si     -0.13583      4.09081      5.27544         0.364931     -0.059351     -0.618079
Si     -1.10380      1.93094      3.61587         0.430659     -2.051613     -1.647830
Si      1.36977      2.15266      1.80578        -1.653978      0.634221     -2.002218
O      1.42757      1.18624      0.40622        -0.987556      2.463169      2.925992
O      0.39302      1.64396      3.01377        -0.114605      0.076655     -0.593033
O      3.26565      0.46125      4.10344        -0.023030     -0.183020      0.127641
O      0.67814      3.52566      1.15282         1.734556     -1.097762      1.852790
O      2.76363      2.51711      2.48429         0.326040     -0.144803     -0.960250
O     -1.18784      3.01188      4.73671        -0.077850      0.373887      0.923134
