
# total energy =    -71.64426248

CRYSTAL
PRIMVEC
 4.885154775 -0.000318619 0.000229197
 -2.432410015 4.201988176 0.000567735
 -0.041485704 -0.050607861 5.380943136
PRIMCOORD
9 1 
Si      2.27636      0.04673      0.03493        -0.801368     -0.455331      0.239298
Si     -1.03683      1.88944      3.55470        -0.209498      0.879062      0.401921
Si      1.38475      2.22746      1.69210        -0.901290      0.787636      2.928886
O      1.08792      1.12140      0.60186         2.034159     -2.014018     -1.580045
O      0.49895      1.73065      3.02960        -0.798772      0.077345     -0.190375
O      3.07872      0.61421      4.19254         0.599963     -0.426002      0.017113
O      0.84928      3.67716      1.22769        -0.594998      0.986494     -0.812481
O      2.87175      2.35727      2.30597         0.892862      0.228887      0.001010
O     -1.04548      2.93022      4.85496        -0.196224     -0.065536     -0.955380
