
# total energy =    -71.74669856

CRYSTAL
PRIMVEC
 4.916854442 -0.000320687 0.000230684
 -2.450881135 4.237486434 0.000572628
 -0.022315794 -0.036373085 5.415313216
PRIMCOORD
9 1 
Si      2.39722      0.05031      0.03905        -1.128443      0.046650     -0.125953
Si      3.74763      1.91748      3.61952        -0.130052      1.242483      0.295326
Si      1.24445      2.27581      1.77146         0.458411      0.440447      0.027459
O      1.30505      1.19209      0.54438         1.151040     -0.531708     -0.435930
O      0.14341      1.62044      2.77455         1.855249      0.399684     -0.508727
O      3.35015      0.50684      4.26853        -0.527449      0.137152     -0.255300
O      0.91103      3.80261      1.22465         0.160399     -1.153264      1.158817
O      2.72897      2.48437      2.45043        -0.564979     -0.271344      1.030437
O     -0.81480      2.91482      4.90821        -1.268752     -0.331427     -1.187753
