
# total energy =    -71.96512029

CRYSTAL
PRIMVEC
 4.920744834 -0.000320940 0.000230867
 -2.455571014 4.257200701 0.000575608
 -0.010785710 -0.010427540 5.427213318
PRIMCOORD
9 1 
Si     -0.16204      4.22426      5.40884        -0.013494      0.586878     -0.663678
Si      3.75528      1.98751      3.57828         1.167040      0.506670      0.384552
Si      1.32518      2.26973      1.83227        -0.501942     -0.226157     -0.951554
O      1.40009      1.07177      0.70803        -1.342840      1.346161      0.450020
O      0.39420      1.81586      3.11047         0.369858      0.046341     -0.986269
O      3.27732      0.65784      4.30083        -0.632758     -1.215058     -0.012514
O      0.77418      3.67689      1.14962         1.486279     -2.009564      1.486214
O      2.86817      2.42663      2.30695        -0.118131      0.518569      0.352055
O     -1.10291      3.09912      4.75579        -0.447668      0.441768     -0.098594
