
# total energy =    -71.66356488

CRYSTAL
PRIMVEC
 4.924694263 -0.000321198 0.000231052
 -2.460708759 4.267475802 0.000577034
 -0.001321957 0.002376786 5.434513601
PRIMCOORD
9 1 
Si     -0.15911      4.21093      5.36310         1.295374      1.268186      1.402163
Si      3.75247      2.02777      3.61580         1.332333     -0.837277     -0.093720
Si      1.38031      2.22292      1.86000        -1.877917      1.521114      0.289410
O      1.48625      1.07744      0.76305        -0.487370     -0.005763     -0.977790
O      0.39736      1.83118      3.14749         0.174342     -0.108358     -0.762652
O      3.34001      0.53176      4.21450        -0.422528      1.425272      0.312690
O      0.65015      3.57273      1.19261         1.152275     -1.377384     -0.174011
O      2.83996      2.62261      2.42275        -0.260877     -0.551181     -0.410871
O     -1.20614      3.30182      4.61880        -0.870786     -1.297670      0.401773
