
# total energy =    -71.57011893

CRYSTAL
PRIMVEC
 4.921751694 -0.000321006 0.000230914
 -2.457293138 4.261838125 0.000576279
 -0.009580913 -0.005077516 5.430270121
PRIMCOORD
9 1 
Si      2.32902      0.00395      0.10337        -0.574305     -0.613788     -2.820487
Si     -1.11939      1.98279      3.58671        -0.217804      1.377161     -0.806688
Si      1.31821      2.24211      1.78112         1.064944     -0.334919     -1.189701
O      1.17077      0.89289      0.77782         0.264208      2.227410      0.611931
O      0.39229      1.91469      3.00196        -1.196007     -0.867482      1.531128
O      3.21357      0.70708      4.31554        -0.510582     -1.185442      1.119941
O      0.95971      3.74325      1.19091        -0.419230     -1.299393     -0.418402
O      2.85489      2.34983      2.26962         0.719049     -0.026169      0.622326
O     -1.11203      3.19611      4.65558         0.892359      0.746745      1.324053
