
# total energy =    -71.71664693

CRYSTAL
PRIMVEC
 4.925226987 -0.000321233 0.000231077
 -2.461474071 4.267135048 0.000576943
 -0.000722572 0.001104036 5.434588583
PRIMCOORD
9 1 
Si     -0.09387      4.21735      5.42107        -1.878914      0.456155     -0.523054
Si      3.78510      1.97309      3.58601        -0.577067      1.249856      0.926704
Si      1.34853      2.28021      1.87302         0.496849     -1.710389     -1.093468
O      1.41686      1.09530      0.71181         0.426542      0.407773     -0.008185
O      0.35924      1.84609      3.05707         0.345156     -0.885970      0.294576
O      3.32316      0.51604      4.17984        -0.304659      0.555744      0.880360
O      0.70347      3.58496      1.25162        -0.142455      1.231189     -1.490212
O      2.81149      2.62018      2.43983         0.308667     -0.807362     -0.081150
O     -1.22092      3.25127      4.64748         1.341780     -0.536210      1.096112
