
# total energy =    -71.59105837

CRYSTAL
PRIMVEC
 4.921870312 -0.000321014 0.000230920
 -2.457438135 4.262489194 0.000576378
 -0.009214400 -0.004274778 5.430702018
PRIMCOORD
9 1 
Si      2.33472      0.01037      0.09905        -1.398688     -0.286616     -2.826443
Si     -1.11188      1.98589      3.59947        -0.758857      1.723667     -0.009886
Si      1.33092      2.23003      1.77589         0.384181     -0.054645     -0.601228
O      1.13923      0.88248      0.76679         0.744132      2.446680      0.871460
O      0.36803      1.90315      3.01167         0.537137     -0.558676      0.334550
O      3.20401      0.71179      4.32377        -0.222135     -0.723071      0.760650
O      0.95135      3.74584      1.15266         0.482230     -2.257079      0.791077
O      2.87871      2.34736      2.27992        -0.299970      0.027841      0.151019
O     -1.10871      3.22447      4.67374         0.563319     -0.291015      0.511006
