
# total energy =    -71.66513429

CRYSTAL
PRIMVEC
 4.917214532 -0.000320710 0.000230701
 -2.451214354 4.238069558 0.000572707
 -0.021872113 -0.035735557 5.415774660
PRIMCOORD
9 1 
Si      2.38607      0.04562      0.04872        -0.683545      0.031130     -0.364735
Si      3.73861      1.92023      3.58739        -0.340242      0.357998      2.404089
Si      1.24440      2.28535      1.77055         0.370645      0.214348      0.537315
O      1.33430      1.20056      0.55911         0.716511     -0.420696     -0.411648
O      0.13436      1.62315      2.79067         3.065968      0.376728     -1.358726
O      3.34729      0.48250      4.27951        -0.157046      1.258502     -0.860496
O      0.91101      3.80560      1.23444         0.093022     -1.096194      1.148109
O      2.74457      2.47897      2.44891        -1.507118      0.080248      0.307809
O     -0.81200      2.92244      4.90316        -1.578923     -0.822066     -1.423802
