
# total energy =    -71.58481009

CRYSTAL
PRIMVEC
 4.887627896 -0.000318780 0.000229313
 -2.433931862 4.204858738 0.000568129
 -0.039652674 -0.049205785 5.383693392
PRIMCOORD
9 1 
Si      2.22414     -0.03443      5.37873         1.258133      0.890075      1.453511
Si     -1.01649      1.91952      3.58172        -1.319645     -0.573496      0.964352
Si      1.37690      2.23071      1.69542        -0.095623     -0.274492      2.209533
O      1.15552      1.08555      0.52845         0.666802      1.069747      1.213925
O      0.49035      1.72352      3.05609         0.189356      0.105890     -1.047341
O      3.03628      0.61414      4.17724         1.857345      0.425777     -0.637229
O      0.81751      3.69228      1.24618        -0.188025      0.059746     -0.879581
O      2.89420      2.36492      2.37529        -1.079115      0.642290     -1.613583
O     -1.04897      2.96700      4.86325        -1.296259     -2.317178     -1.672378
