
# total energy =    -71.58541721

CRYSTAL
PRIMVEC
 4.921841113 -0.000321012 0.000230918
 -2.457406435 4.262325203 0.000576353
 -0.009314110 -0.004479254 5.430594203
PRIMCOORD
9 1 
Si      2.33385      0.00900      0.10165        -1.215740     -0.386793     -2.947098
Si     -1.11350      1.98426      3.59647        -0.605880      1.710729     -0.224406
Si      1.32738      2.23313      1.77766         0.569533     -0.118571     -0.796356
O      1.14664      0.88287      0.76880         0.598912      2.470340      0.872137
O      0.37429      1.90665      3.00848         0.083642     -0.631138      0.634236
O      3.20675      0.71152      4.32084        -0.338479     -0.921651      0.895507
O      0.95330      3.74694      1.16191         0.298192     -2.088813      0.552411
O      2.87264      2.34798      2.27703        -0.051033      0.008805      0.268508
O     -1.11023      3.21722      4.66841         0.689634      0.001333      0.729918
