
# total energy =    -71.94758797

CRYSTAL
PRIMVEC
 4.920875428 -0.000320949 0.000230873
 -2.455745711 4.257587273 0.000575662
 -0.010639194 -0.009955216 5.427483511
PRIMCOORD
9 1 
Si     -0.16437      4.21795      5.41673         0.228298      1.098499     -0.331877
Si      3.75519      1.99130      3.55980         1.005047      0.013189      1.738276
Si      1.32608      2.26762      1.82084        -0.662719     -0.037605     -0.332766
O      1.38771      1.06393      0.72912        -1.145466      0.891831      0.040421
O      0.38389      1.82838      3.11360         0.941286      0.019918     -1.336933
O      3.26820      0.65265      4.31238        -0.255070     -0.371485     -0.447442
O      0.79307      3.69092      1.15980         1.301851     -2.010443      1.309297
O      2.86999      2.41077      2.30701        -0.508857      0.731512     -0.133906
O     -1.09030      3.11502      4.75069        -0.906043     -0.334699     -0.538548
