
# total energy =    -71.76054879

CRYSTAL
PRIMVEC
 4.907178911 -0.000320056 0.000230231
 -2.445470155 4.224492840 0.000570774
 -0.026242215 -0.043407372 5.404249470
PRIMCOORD
9 1 
Si     -0.12007      4.11957      5.32704         0.112296      1.667193      2.350986
Si      3.75015      1.88763      3.60294        -0.921929      0.893164      1.293682
Si      1.31717      2.27630      1.81950         1.126196     -1.048593      0.244444
O      1.59682      1.21611      0.59256        -0.987317      0.555097      0.526906
O      0.25038      1.66974      2.94078         2.449008      0.077129     -1.412850
O      3.29488      0.45312      4.20209         0.765095      0.639453     -1.202734
O      0.80420      3.64608      1.17258         0.096892     -0.203154      0.112492
O      2.76340      2.60923      2.57371        -1.959010     -0.499177     -1.362164
O     -1.13943      3.08323      4.76348        -0.681349     -2.116982     -0.539755
