
# total energy =    -71.68141067

CRYSTAL
PRIMVEC
 4.922092133 -0.000321028 0.000230930
 -2.457606587 4.263845531 0.000576590
 -0.008293100 -0.002573758 5.431556359
PRIMCOORD
9 1 
Si      2.32225      0.02028      0.05282        -1.170045      0.178985      0.668018
Si     -1.11110      2.01853      3.62838        -0.823607      0.848841      0.538124
Si      1.35917      2.20677      1.76003        -0.684237      0.667300      0.998017
O      1.10404      0.92589      0.76635         1.875928      0.742745     -0.122931
O      0.34685      1.86635      3.03317         1.925477     -0.123614     -0.576482
O      3.18537      0.71098      4.35319         1.006402      1.145423     -0.825606
O      0.94855      3.68681      1.10140         0.013542     -1.508813      0.655032
O      2.91103      2.34395      2.30189        -1.317317      0.137555     -0.305596
O     -1.09253      3.26234      4.71611        -0.859415     -2.084107     -1.012355
