
# total energy =    -71.61033329

CRYSTAL
PRIMVEC
 4.889237459 -0.000318885 0.000229389
 -2.434942473 4.206577938 0.000568361
 -0.038430246 -0.048428663 5.385444681
PRIMCOORD
9 1 
Si      2.22787     -0.04625      5.36986         1.720319      0.207242      0.418317
Si     -1.01673      1.93386      3.60800        -1.445523     -1.452756     -0.626347
Si      1.36991      2.23146      1.72371         0.189655     -0.260596      1.063831
O      1.21482      1.07470      0.49803        -0.582774      2.640376      2.440934
O      0.48560      1.72100      3.05452         0.023259      0.071739     -0.897657
O      3.04287      0.62001      4.15705         1.500020     -0.319568     -0.153659
O      0.79273      3.70578      1.24047         0.350868     -0.928762     -0.458835
O      2.89265      2.38094      2.39142        -1.147098      0.642542     -1.652459
O     -1.07282      2.95190      4.83845        -0.597017     -0.583701     -0.132621
