
# total energy =    -71.67205088

CRYSTAL
PRIMVEC
 4.911833678 -0.000320359 0.000230449
 -2.447851320 4.229981544 0.000571553
 -0.024677657 -0.041275206 5.409292292
PRIMCOORD
9 1 
Si      2.38354      0.00612      0.00538        -0.367396      0.239136     -1.120994
Si     -1.09856      1.96362      3.59982        -0.216257     -0.450538     -0.578940
Si      1.36292      2.21072      1.74593        -1.853649      1.863555      0.652652
O      1.39748      1.21519      0.54999         0.983836     -2.156861     -1.914556
O      0.30585      1.66863      2.81295        -2.538580     -0.282211      1.413068
O      3.27590      0.56219      4.18625        -0.354557     -1.235471      1.042212
O      0.83983      3.65553      1.20306         0.038357      0.463409     -0.199579
O      2.57875      2.48089      2.66316         3.427957      0.620378      0.482983
O     -1.06963      2.99428      4.84988         0.879298      0.905544      0.215563
