
# total energy =    -71.76919528

CRYSTAL
PRIMVEC
 4.898160316 -0.000319467 0.000229807
 -2.440783734 4.215164760 0.000569480
 -0.030971529 -0.045865142 5.394618253
PRIMCOORD
9 1 
Si      2.29155     -0.04004      5.37835        -0.215980     -0.816546     -0.117929
Si      3.72687      1.89703      3.52697         0.902275      0.023788      3.962995
Si      1.34966      2.27132      1.85746         0.057347     -0.968534     -0.210047
O      1.50102      1.24320      0.60850        -0.288451     -0.511044     -0.020145
O      0.33604      1.68381      3.02468         1.628904      0.132077     -0.955096
O      3.25348      0.40303      4.12286         0.005662      1.567686     -0.275831
O      0.78469      3.58034      1.18437        -0.397207      1.612130     -0.278342
O      2.88041      2.55122      2.37672        -1.759966      0.217178     -0.723965
O     -1.17451      3.03261      4.82882         0.073953     -1.239188     -1.389245
