
# total energy =    -71.73413698

CRYSTAL
PRIMVEC
 4.875603015 -0.000317996 0.000228749
 -2.426134682 4.188837580 0.000565895
 -0.048252273 -0.057881063 5.368914148
PRIMCOORD
9 1 
Si     -0.18128      4.11100      5.34734         0.131531      1.805065      1.715681
Si      3.69977      1.89151      3.56419         1.785042     -0.321276     -2.361706
Si      1.32935      2.26637      1.81085        -0.051035     -0.280254      0.979866
O      1.31408      1.12060      0.72543         0.604783     -2.428794     -2.852275
O      0.37331      1.70110      3.01892         0.241310      0.401330      0.053886
O      3.27635      0.49999      4.21191        -0.980145     -0.486356      0.294387
O      0.89225      3.67261      1.17427        -0.899140      0.204731     -0.563401
O      2.90246      2.37756      2.21729        -0.140673      0.178493      1.436302
O     -1.11107      3.01578      4.66389        -0.709289      0.922293      1.319811
