
# total energy =    -71.96216239

CRYSTAL
PRIMVEC
 4.920811295 -0.000320945 0.000230870
 -2.455659134 4.257394643 0.000575635
 -0.010710735 -0.010190763 5.427349314
PRIMCOORD
9 1 
Si     -0.16322      4.22096      5.41288         0.098165      0.855772     -0.536649
Si      3.75505      1.98936      3.56885         1.084439      0.262794      1.092608
Si      1.32573      2.26870      1.82667        -0.601650     -0.141794     -0.660404
O      1.39427      1.06750      0.71849        -1.253109      1.149597      0.280771
O      0.38885      1.82211      3.11240         0.668503      0.043927     -1.195394
O      3.27289      0.65549      4.30668        -0.445161     -0.794830     -0.248735
O      0.78320      3.68452      1.15428         1.425499     -2.036851      1.455333
O      2.86918      2.41851      2.30695        -0.314826      0.630048      0.111831
O     -1.09640      3.10706      4.75335        -0.677655      0.044967     -0.339942
