
# total energy =    -71.66996883

CRYSTAL
PRIMVEC
 4.923796394 -0.000321139 0.000231010
 -2.459606039 4.267536879 0.000577096
 -0.004031125 0.001746525 5.434105048
PRIMCOORD
9 1 
Si     -0.14486      4.26496      5.39324        -1.821553      0.603120      1.306190
Si     -1.08849      2.05037      3.59576        -1.843200      0.820466      1.270133
Si      1.30860      2.23198      1.85114         1.671831     -0.257259      1.029858
O      1.38963      1.14096      0.73762         0.682763     -3.368288     -1.784463
O      0.42206      1.77732      3.15134         0.565532      0.288036     -0.625466
O      3.25763      0.74436      4.35550         0.525947     -0.428074     -0.869523
O      0.75383      3.42253      0.99954        -0.445727      2.289909      0.276979
O      2.86041      2.46589      2.35337         0.011934      0.127942      0.368324
O     -1.22867      3.22989      4.75640         0.680640     -0.085539     -1.046958
