
# total energy =    -71.83690768

CRYSTAL
PRIMVEC
 4.908781839 -0.000320160 0.000230306
 -2.446334572 4.226249159 0.000571018
 -0.025752370 -0.042951342 5.405926233
PRIMCOORD
9 1 
Si     -0.10119      4.15220      5.35031        -0.701697     -0.859372      0.711928
Si     -1.13436      1.90286      3.58755        -0.669424      0.526482      2.078123
Si      1.32820      2.26515      1.80391         0.850349     -1.171123     -0.156729
O      1.56222      1.18549      0.55358        -1.540371      2.083269      1.781252
O      0.26277      1.67681      2.90778         1.733620     -0.173489     -1.156640
O      3.27466      0.50067      4.21157         1.057868      0.029904     -1.234328
O      0.81185      3.64633      1.18499         0.208700     -0.085404      0.022027
O      2.71137      2.56661      2.63493        -1.822678      0.095310     -2.250573
O     -1.14650      3.05216      4.77870         0.900283     -0.447739      0.216575
