
# total energy =    -71.68612483

CRYSTAL
PRIMVEC
 4.890874337 -0.000318992 0.000229466
 -2.435944167 4.208246872 0.000568585
 -0.037116765 -0.047757949 5.387203562
PRIMCOORD
9 1 
Si     -0.19056      4.15228      5.36547         0.739337      0.028697     -0.315889
Si     -1.02899      1.93589      3.62811        -1.077678     -1.886145     -3.082963
Si      1.36456      2.23011      1.76103         0.350357      0.142391     -0.232248
O      1.26682      1.10105      0.50218        -0.706164      2.209272      2.074682
O      0.48034      1.71934      3.04049        -0.805928     -0.057927     -0.040954
O      3.07148      0.62045      4.13493         0.625307     -1.454467      0.549928
O      0.77307      3.70580      1.22776         0.741420     -1.429410     -0.013133
O      2.87515      2.40627      2.38397        -0.244469      0.423990     -0.765822
O     -1.10531      2.92906      4.81231         0.356246      2.006960      1.854784
