
# total energy =    -71.62080644

CRYSTAL
PRIMVEC
 4.924766638 -0.000321203 0.000231056
 -2.460796376 4.267426200 0.000577022
 -0.001170610 0.002267612 5.434519402
PRIMCOORD
9 1 
Si     -0.15042      4.20632      5.36309         0.902854      1.459095      1.862863
Si      3.75407      2.02063      3.61137         1.162389     -0.601320     -0.053133
Si      1.38165      2.22592      1.85533        -1.839929      1.754593      1.109860
O      1.47248      1.09513      0.77493         0.103295     -1.307790     -2.018127
O      0.38685      1.83634      3.14008         0.427669     -0.209701     -0.757260
O      3.34133      0.51969      4.20453        -0.444899      1.465422      0.464423
O      0.65779      3.57031      1.21343         0.652694     -0.684216     -0.830605
O      2.83686      2.62813      2.42698        -0.228245     -0.622235     -0.361489
O     -1.20752      3.30269      4.61533        -0.709826     -1.258530      0.570652
