
# total energy =    -71.47645628

CRYSTAL
PRIMVEC
 4.840059356 -0.000315678 0.000227081
 -2.403391967 4.140529852 0.000559123
 -0.075769689 -0.087503061 5.320527056
PRIMCOORD
9 1 
Si     -0.16243      4.11787      0.01281         1.700722      3.095743      1.543854
Si     -1.08195      1.76284      3.48431        -0.468813     -1.004641      0.416886
Si      1.29559      2.35142      1.74923         1.035996     -2.883453      0.683018
O      1.31592      1.29216      0.47271         0.548226     -0.776182     -0.564521
O      0.36126      1.50146      2.81510         0.427536      0.641810      0.173172
O      3.18154      0.34094      4.11752         0.137295      0.739619      0.087092
O      0.82743      3.83460      1.44128        -1.863853      0.430506     -2.745515
O      2.83789      2.38991      2.30344        -0.460633      0.399894      0.568657
O     -0.97634      2.75876      4.78423        -1.091888     -0.648995     -0.171668
