
# total energy =    -71.65770548

CRYSTAL
PRIMVEC
 4.924425757 -0.000321181 0.000231040
 -2.460424486 4.267651761 0.000577076
 -0.002033428 0.002525002 5.434473486
PRIMCOORD
9 1 
Si     -0.17340      4.23571      5.37159         1.860576     -0.760937     -0.911063
Si     -1.16299      2.04274      3.62892         1.239061     -0.954012     -0.747289
Si      1.35684      2.22586      1.87310        -0.827787      0.474697     -1.612754
O      1.51428      1.03653      0.72032        -2.513230      3.672695      2.188944
O      0.43290      1.81196      3.15966        -0.771343      0.060856     -0.458847
O      3.32751      0.59780      4.25346        -0.379173      0.458293      0.054038
O      0.65098      3.54769      1.12518         1.848410     -2.199199      1.157798
O      2.84600      2.59323      2.40032        -0.132731     -0.493672     -0.236335
O     -1.21676      3.27694      4.63825        -0.285293     -0.276046      0.597929
