
# total energy =    -71.62880306

CRYSTAL
PRIMVEC
 4.855672987 -0.000316696 0.000227814
 -2.412787987 4.161450094 0.000562077
 -0.063382228 -0.074584659 5.341912792
PRIMCOORD
9 1 
Si      2.27810     -0.03269      5.25539        -1.273538     -1.464893      3.398808
Si     -1.13017      1.86249      3.57217         1.830256      1.512650      0.210101
Si      1.36238      2.19104      1.76599        -0.612160     -1.017761      1.296336
O      1.38748      1.26694      0.44000         0.889254     -1.149886      0.099919
O      0.37175      1.60571      2.97487         0.387221      0.091754     -0.570419
O      3.25382      0.44934      4.13326         0.587744     -0.419098     -0.868738
O      0.69972      3.48561      1.22212        -1.022729      3.828472     -1.497274
O      2.80395      2.51665      2.43385        -0.498066     -0.402274     -0.556517
O     -1.13378      2.94403      4.82992        -0.304212     -0.954242     -1.487951
