
# total energy =    -71.74178497

CRYSTAL
PRIMVEC
 4.872029791 -0.000317763 0.000228581
 -2.423745185 4.183491554 0.000565140
 -0.050979500 -0.061297323 5.364037559
PRIMCOORD
9 1 
Si      2.30011     -0.05560      5.34232        -1.343587     -1.898738     -1.646252
Si      3.70965      1.87769      3.53412         1.838597      0.928679      1.618175
Si      1.33684      2.22552      1.81888        -1.130130     -0.419533     -1.535941
O      1.43994      1.07642      0.63342        -2.091386      2.915846      1.456107
O      0.39857      1.69627      3.04102        -0.376564      0.171150     -0.427528
O      3.26705      0.47790      4.18067         0.225412      0.066215     -0.598764
O      0.83044      3.64984      1.16502         1.126748     -1.907544      1.316270
O      2.81528      2.40880      2.34730         0.398793      0.502698     -0.597855
O     -1.24767      3.09331      4.65225         1.354437     -0.338231      0.377019
