
# total energy =    -71.54584164

CRYSTAL
PRIMVEC
 4.915844142 -0.000320621 0.000230637
 -2.450047771 4.235945470 0.000572418
 -0.023320176 -0.037856497 5.414044152
PRIMCOORD
9 1 
Si      2.40864      0.06157      0.01427        -1.222749     -0.672271      0.738971
Si     -1.14196      1.93412      3.68972         0.578345      1.511189     -4.787295
Si      1.25374      2.25732      1.76935         1.132243      0.344637     -1.264511
O      1.26150      1.15710      0.49522         1.561494      0.019277      0.157548
O      0.19289      1.62213      2.73575        -1.684454      0.019701      2.102927
O      3.33811      0.55606      4.24233        -1.071957     -2.279136      0.851535
O      0.91214      3.76860      1.22247        -0.448662     -0.210878     -0.088416
O      2.68500      2.48898      2.48832         1.203435     -0.547676      1.684893
O     -0.84847      2.89845      4.89947        -0.019794      1.804428      0.629348
