
# total energy =    -71.86464272

CRYSTAL
PRIMVEC
 4.920183035 -0.000320904 0.000230841
 -2.454859105 4.255557092 0.000575374
 -0.011423267 -0.012335875 5.426069737
PRIMCOORD
9 1 
Si      2.29975     -0.00461      5.36986        -0.585542     -0.941165      0.962058
Si     -1.14686      1.98412      3.64009         1.220161      0.954850     -3.245886
Si      1.31915      2.27298      1.85916         1.025256     -0.788466     -1.925925
O      1.41774      1.13685      0.63870        -0.749105      0.698287      0.574145
O      0.43017      1.76634      3.08543        -1.584573     -0.099973      0.805887
O      3.29294      0.63409      4.26129        -0.816773     -2.225113      0.355777
O      0.73013      3.58261      1.13935         0.199261      0.442386     -0.034002
O      2.86501      2.49709      2.32465         0.571974     -0.315123      1.447832
O     -1.15474      3.06256      4.78406         0.715051      2.293192      1.074195
