
# total energy =    -71.78244462

CRYSTAL
PRIMVEC
 4.852800436 -0.000316509 0.000227679
 -2.411117603 4.157547711 0.000561522
 -0.065667560 -0.076929353 5.338039878
PRIMCOORD
9 1 
Si      2.26216     -0.02830      5.28916        -1.278814     -1.130449      1.635991
Si     -1.11927      1.83747      3.54607         1.134431      1.790495      0.295842
Si      1.34311      2.20336      1.75319        -0.255324      0.595088      2.389464
O      1.37876      1.30190      0.47822         1.054344     -2.736641     -2.012706
O      0.36845      1.58551      2.93448         0.385906      0.089694     -0.258193
O      3.26071      0.43149      4.13006        -0.294058     -0.707493     -0.128032
O      0.69739      3.54538      1.23619        -0.360565      2.655985     -0.546418
O      2.81710      2.50628      2.38546        -0.434759     -0.517558      0.085639
O     -1.10977      2.87919      4.85134         0.063386     -0.035937     -1.450530
