
# total energy =    -71.65495552

CRYSTAL
PRIMVEC
 4.864361158 -0.000317263 0.000228222
 -2.418238943 4.173092343 0.000563711
 -0.056632263 -0.067114294 5.353812490
PRIMCOORD
9 1 
Si     -0.13401      4.05591      5.29053         0.301636      2.449652     -0.175512
Si     -1.06474      1.94139      3.60740        -1.886169     -1.612558     -1.707766
Si      1.33194      2.13320      1.79295         0.600149      2.034137      0.172988
O      1.43047      1.20813      0.51315         0.341628     -1.376283     -0.663668
O      0.40702      1.68364      3.02266        -0.428440     -0.354464      0.156205
O      3.27752      0.46079      4.08058        -0.572523     -0.159959      1.288363
O      0.73691      3.53358      1.16716         0.408180     -0.275742      0.572527
O      2.74053      2.50473      2.48120         0.905711     -0.471933     -0.539925
O     -1.24714      3.09021      4.68469         0.339261     -0.222504      0.904268
