
# total energy =    -71.70114591

CRYSTAL
PRIMVEC
 4.879610516 -0.000318258 0.000228937
 -2.429042567 4.194411742 0.000566663
 -0.045728262 -0.054634322 5.374014229
PRIMCOORD
9 1 
Si      2.24245      0.03891      0.05102         1.813743     -1.164279     -1.255588
Si     -1.10309      1.89403      3.51997        -0.902429     -0.506414      1.798125
Si      1.32260      2.27477      1.81549         1.372550     -0.841678     -2.001387
O      1.19573      1.04269      0.64231        -0.561003      2.377179      1.485213
O      0.38876      1.73692      2.98982         1.191924     -0.427345      0.267756
O      3.21243      0.51401      4.24443         0.070079      1.152891     -0.987134
O      0.89639      3.69226      1.16208        -0.265337     -0.469060      0.591465
O      2.96105      2.36392      2.18835        -1.912828      0.086708      0.531207
O     -1.03372      2.95239      4.75845        -0.819564     -0.168468     -0.446908
