
# total energy =    -71.79435483

CRYSTAL
PRIMVEC
 4.923990300 -0.000321152 0.000231019
 -2.459891309 4.267722028 0.000577112
 -0.003344026 0.002112660 5.434294821
PRIMCOORD
9 1 
Si     -0.14952      4.25642      5.37349        -1.031171      0.131102      1.698869
Si     -1.11328      2.04274      3.61855        -0.415658      0.782249     -0.959531
Si      1.30766      2.23870      1.85342         2.092002     -1.111160      1.274083
O      1.44095      1.12529      0.74259         0.245767     -2.426865     -1.453818
O      0.44066      1.78570      3.15721        -0.671629      0.232209     -0.112267
O      3.28521      0.71064      4.32072        -0.084792     -1.126895     -0.083593
O      0.72923      3.42852      1.05787        -1.261337      3.089753     -1.313150
O      2.85158      2.51746      2.36026         0.260760     -0.273655      0.647858
O     -1.23876      3.23386      4.70716         0.881707      0.718468      0.279246
