
# total energy =    -71.84576923

CRYSTAL
PRIMVEC
 4.897210409 -0.000319405 0.000229763
 -2.440114938 4.214231969 0.000569360
 -0.031745529 -0.046112674 5.393622335
PRIMCOORD
9 1 
Si     -0.14482      4.16514      5.36694        -0.794847      0.150322      0.947447
Si      3.75069      1.89489      3.53234         0.005642      0.575278      3.327733
Si      1.35331      2.26208      1.84897        -0.094902     -0.379844      0.010022
O      1.45921      1.25523      0.61200         0.434144     -1.887874     -1.019147
O      0.34975      1.69095      3.02754         1.570576      0.019895     -0.783172
O      3.22481      0.43394      4.12376         0.316033      1.218449     -0.400244
O      0.78217      3.58657      1.19119        -0.392768      1.627023     -0.290600
O      2.87480      2.53130      2.36782        -0.994195      0.090987     -0.106200
O     -1.16884      3.02596      4.84206        -0.030404     -1.413522     -1.662594
