
# total energy =    -71.57952954

CRYSTAL
PRIMVEC
 4.921811540 -0.000321010 0.000230917
 -2.457371661 4.262162204 0.000576328
 -0.009408767 -0.004681191 5.430486292
PRIMCOORD
9 1 
Si      2.33256      0.00749      0.10324        -1.003622     -0.478827     -2.971280
Si     -1.11533      1.98321      3.59340        -0.459995      1.636804     -0.462113
Si      1.32404      2.23620      1.77916         0.762979     -0.185402     -0.961080
O      1.15441      0.88475      0.77133         0.478082      2.437373      0.804048
O      0.38060      1.90978      3.00567        -0.379362     -0.718569      0.957443
O      3.20928      0.71070      4.31845        -0.422268     -1.063675      1.022247
O      0.95543      3.74678      1.17149         0.086101     -1.858641      0.239322
O      2.86654      2.34860      2.27430         0.209763     -0.003761      0.389465
O     -1.11132      3.20997      4.66353         0.787518      0.270730      0.950694
