
# total energy =    -71.57959587

CRYSTAL
PRIMVEC
 4.925053660 -0.000321221 0.000231069
 -2.461208070 4.267239133 0.000576972
 -0.000808864 0.001587720 5.434548551
PRIMCOORD
9 1 
Si     -0.11017      4.20646      5.38941        -1.056516      0.867326      1.262810
Si      3.77236      1.98790      3.59373        -0.047413      0.692810      0.339930
Si      1.36558      2.25878      1.85758        -0.402883     -0.343215      1.198303
O      1.42812      1.11852      0.76275         0.939535     -1.895614     -2.132450
O      0.35981      1.84932      3.09365         0.913787     -0.629550     -0.333183
O      3.33545      0.50470      4.17912        -0.435416      0.983948      0.912090
O      0.69269      3.56208      1.26341        -0.780272      1.816089     -2.450130
O      2.82049      2.63330      2.43675         0.117805     -0.872404     -0.120030
O     -1.22213      3.27969      4.62072         0.750883     -0.615746      1.308744
