
# total energy =    -71.75527747

CRYSTAL
PRIMVEC
 4.908005156 -0.000320110 0.000230269
 -2.445922106 4.225379352 0.000570897
 -0.025996542 -0.043202331 5.405103133
PRIMCOORD
9 1 
Si     -0.10998      4.13546      5.33621        -0.452967      0.241827      1.613326
Si      3.76385      1.89409      3.59205        -1.035451      0.625039      2.234359
Si      1.32100      2.27266      1.81159         1.115830     -1.273051      0.084413
O      1.58326      1.19650      0.56927        -1.393704      1.634756      1.457362
O      0.24960      1.67341      2.92854         2.659994     -0.052189     -1.621207
O      3.28180      0.47552      4.21077         1.138276      0.526972     -1.489268
O      0.80751      3.64672      1.17844         0.198340     -0.197806      0.145560
O      2.74359      2.58827      2.61005        -2.356984     -0.115459     -2.164625
O     -1.14329      3.07144      4.77167         0.116263     -1.405533     -0.221232
