
# total energy =    -71.60427750

CRYSTAL
PRIMVEC
 4.917547597 -0.000320732 0.000230717
 -2.451517566 4.238668271 0.000572790
 -0.021402189 -0.035066534 5.416225591
PRIMCOORD
9 1 
Si      2.37284      0.04097      0.05723        -0.034064     -0.235435     -0.616113
Si      3.72869      1.92415      3.56254         0.115596     -0.460779      3.727099
Si      1.24554      2.29553      1.77124         0.412473     -0.160701      0.787847
O      1.36741      1.20683      0.57172         0.223390     -0.156472     -0.283507
O      0.14152      1.62792      2.79963         3.203700      0.332122     -1.540735
O      3.34353      0.46482      4.28590         0.047250      1.888055     -1.183038
O      0.91143      3.80279      1.25036        -0.202200     -0.725861      0.768284
O      2.75213      2.47403      2.44905        -2.106878      0.416330     -0.355657
O     -0.81763      2.92582      4.89053        -1.636934     -0.884666     -1.313421
