
# total energy =    -71.76013891

CRYSTAL
PRIMVEC
 4.869667693 -0.000317609 0.000228471
 -2.422037990 4.180209288 0.000564687
 -0.052808736 -0.063226394 5.360854950
PRIMCOORD
9 1 
Si     -0.12067      4.11071      5.31580        -0.656962     -1.378906      0.321720
Si     -1.11260      1.88773      3.53180        -0.444262      0.897454      2.369883
Si      1.31713      2.19432      1.80045         0.961289     -0.638767     -0.166818
O      1.45465      1.11838      0.59932        -1.200251      1.452173      0.889832
O      0.40138      1.70244      3.03919        -0.011422     -0.294343     -0.260062
O      3.25850      0.45712      4.14898         0.736947      0.728932     -0.554291
O      0.82574      3.57424      1.19936        -0.764104      0.947083     -1.006631
O      2.78409      2.44383      2.41686        -0.087394      0.078680     -1.088458
O     -1.28298      3.14333      4.67466         1.450433     -1.813473     -0.496367
