
# total energy =    -71.70578140

CRYSTAL
PRIMVEC
 4.882341143 -0.000318436 0.000229065
 -2.430795827 4.198223153 0.000567200
 -0.043717183 -0.052591449 5.377514890
PRIMCOORD
9 1 
Si      2.26972      0.07164      0.08286        -0.928401     -1.698856     -2.658221
Si     -1.06869      1.87767      3.53139         0.066521      0.970847      0.084901
Si      1.36496      2.24384      1.76214        -0.920749      0.458409     -0.743937
O      1.10742      1.07977      0.62666         1.339969      0.021382     -0.185657
O      0.46662      1.74181      2.98997        -1.005858     -0.281314      0.832723
O      3.15834      0.58589      4.21457        -0.616434     -0.999659      0.303666
O      0.86567      3.69721      1.17266         0.403360     -0.585551      0.940229
O      2.89215      2.36011      2.22150         1.149002     -0.011238      1.007868
O     -1.05064      2.88885      4.79997         0.521963      2.132910      0.427886
