
# total energy =    -71.72993224

CRYSTAL
PRIMVEC
 4.919173354 -0.000320838 0.000230793
 -2.452595587 4.244762780 0.000573729
 -0.016667555 -0.026971777 5.420112550
PRIMCOORD
9 1 
Si     -0.11778      4.16279      5.38589        -1.076483      1.775773      1.719116
Si      3.80378      1.87737      3.59135        -1.683918      1.249556      2.312274
Si      1.33433      2.29817      1.79606         0.285340     -0.204467      0.684653
O      1.53396      1.27201      0.54683        -0.691465      0.087693      0.303506
O      0.27301      1.66160      2.93407         2.958815     -0.038616     -1.778081
O      3.22041      0.51079      4.23148         1.696833      0.490136     -1.472299
O      0.72237      3.75133      1.28423         1.089810     -1.604835      0.549379
O      2.78269      2.54245      2.56807        -2.070900      0.201300     -1.711640
O     -1.08278      3.07499      4.78499        -0.491942     -1.937434     -0.616214
