
# total energy =    -71.64755312

CRYSTAL
PRIMVEC
 4.904811053 -0.000319901 0.000230119
 -2.444235721 4.222067332 0.000570438
 -0.027007647 -0.043864937 5.401843380
PRIMCOORD
9 1 
Si     -0.14202      4.10940      5.33837         0.549517      2.668742      1.681268
Si      3.70527      1.88533      3.63742         0.907439      0.799819     -2.826190
Si      1.32167      2.27465      1.84478         0.313026      0.348438      0.107473
O      1.61251      1.26503      0.65158        -0.174521     -2.211685     -2.204860
O      0.30043      1.66353      2.94619        -0.556649      0.213632      0.476232
O      3.33977      0.40736      4.15643        -0.973967      0.134657      0.447119
O      0.79612      3.63920      1.15952        -0.106655     -0.222371      0.115125
O      2.77824      2.64649      2.45795         0.536615     -1.226671      1.475736
O     -1.15078      3.06146      4.73034        -0.489281     -0.492527      0.696211
