
# total energy =    -71.70323744

CRYSTAL
PRIMVEC
 4.879329629 -0.000318239 0.000228924
 -2.428839261 4.194029835 0.000566611
 -0.045907934 -0.054842959 5.373659785
PRIMCOORD
9 1 
Si      2.24180      0.03217      0.04359         1.934034     -0.677027     -0.739849
Si     -1.10797      1.89538      3.52165        -0.826768     -0.577899      1.740627
Si      1.31998      2.27719      1.81696         1.455542     -1.028907     -1.837566
O      1.20354      1.04631      0.64851        -0.441818      2.147467      1.326595
O      0.38271      1.73488      2.99147         1.329771     -0.385332      0.188697
O      3.21749      0.50873      4.24512         0.091376      1.255078     -1.027723
O      0.89998      3.68910      1.16429        -0.446049     -0.263523      0.399851
O      2.96407      2.36443      2.18704        -2.030710      0.103381      0.549054
O     -1.03282      2.96137      4.75419        -1.055513     -0.528085     -0.588829
