
# total energy =    -71.72471379

CRYSTAL
PRIMVEC
 4.881260536 -0.000318365 0.000229015
 -2.430151416 4.196697160 0.000566982
 -0.044567997 -0.053406648 5.376123610
PRIMCOORD
9 1 
Si      2.25696      0.06716      0.08158         0.244984     -2.173360     -2.974851
Si     -1.08007      1.88350      3.52215        -0.541345      0.260531      1.021864
Si      1.34651      2.25630      1.79140         0.229229      0.084744     -1.935485
O      1.14223      1.05182      0.62479         0.183943      1.720475      1.057104
O      0.43574      1.74317      2.98497        -0.229799     -0.463194      0.765579
O      3.18192      0.55668      4.22947        -0.322021     -0.096083     -0.322722
O      0.87499      3.70207      1.15985         0.507325     -1.019195      1.265927
O      2.92315      2.36162      2.20312        -0.274334     -0.016638      0.748839
O     -1.04485      2.90375      4.78160         0.245129      1.675051      0.346299
