
# total energy =    -71.84470049

CRYSTAL
PRIMVEC
 4.919604883 -0.000320866 0.000230814
 -2.454155613 4.253220251 0.000575028
 -0.012060681 -0.014761905 5.424576135
PRIMCOORD
9 1 
Si      2.28901      0.00611      5.35594        -0.417829     -0.380081      2.189478
Si     -1.09446      2.00128      3.63967        -0.903358     -0.485566      0.229229
Si      1.34197      2.25293      1.84457         1.043564     -0.256692      0.184065
O      1.40756      1.24185      0.57734         0.669652     -1.463375     -0.150096
O      0.40669      1.70232      3.08450         0.224710      0.294739     -0.292516
O      3.28390      0.51833      4.21507         0.662707      1.403110     -0.912470
O      0.68369      3.49806      1.12593        -0.364232      2.243654     -0.166802
O      2.88014      2.56767      2.41442        -0.904170     -0.664731      0.167109
O     -1.18954      3.11181      4.85530        -0.008364     -0.715263     -1.282438
