
# total energy =    -71.86284085

CRYSTAL
PRIMVEC
 4.920251974 -0.000320908 0.000230844
 -2.454944274 4.255774595 0.000575406
 -0.011346327 -0.012096775 5.426217104
PRIMCOORD
9 1 
Si      2.29943     -0.00753      5.37466        -0.507697     -0.841610      0.593108
Si     -1.15086      1.98322      3.63530         1.329205      1.103996     -3.165276
Si      1.31944      2.27328      1.85802         0.814750     -0.719555     -1.985667
O      1.41800      1.12604      0.64581        -0.926793      0.946179      0.674815
O      0.42784      1.77260      3.08814        -1.459987     -0.082299      0.637294
O      3.29319      0.64227      4.26510        -0.965962     -2.481837      0.485684
O      0.73377      3.59600      1.13906         0.457274     -0.003683      0.257920
O      2.86434      2.48835      2.31985         0.602878     -0.232580      1.425172
O     -1.14921      3.06297      4.77869         0.673975      2.312400      1.087473
