
# total energy =    -71.63046947

CRYSTAL
PRIMVEC
 4.922009935 -0.000321023 0.000230926
 -2.457554949 4.263328905 0.000576509
 -0.008657975 -0.003219824 5.431238729
PRIMCOORD
9 1 
Si      2.33108      0.01642      0.07336        -1.639698      0.113061     -0.952316
Si     -1.10854      2.00268      3.61585        -1.171933      1.337691      0.763960
Si      1.34939      2.21474      1.76530        -0.431182      0.343460      0.400582
O      1.11082      0.90148      0.76414         1.528512      1.685910      0.468317
O      0.34641      1.88146      3.02748         2.052603     -0.255863     -0.650908
O      3.19020      0.70959      4.34286         0.594756      0.562070     -0.319759
O      0.94706      3.71910      1.11554         0.551352     -2.226873      1.165821
O      2.90379      2.34477      2.29456        -1.198577      0.114455     -0.257485
O     -1.09781      3.25470      4.70220        -0.304940     -1.641524     -0.593102
