
# total energy =    -71.68836806

CRYSTAL
PRIMVEC
 4.876754216 -0.000318071 0.000228803
 -2.426937535 4.190499928 0.000566127
 -0.047488115 -0.056861718 5.370411238
PRIMCOORD
9 1 
Si     -0.20725      4.11629      5.35668         1.458224      2.587923      2.442661
Si      3.71843      1.89672      3.55431         0.955306     -0.632170     -1.208906
Si      1.31951      2.27773      1.81216         0.966909     -1.170191      0.599615
O      1.27396      1.10795      0.71624         0.750300     -1.740444     -2.065469
O      0.36545      1.71056      3.00946         0.792309      0.210371      0.130115
O      3.26273      0.49497      4.22671        -0.585558      0.458531     -0.197338
O      0.90858      3.66881      1.17976        -1.408472      0.986836     -1.007445
O      2.93694      2.37215      2.19549        -1.153005      0.133514      1.325964
O     -1.06762      3.01027      4.69495        -1.768270     -0.800225     -0.027244
