
# total energy =    -71.76122121

CRYSTAL
PRIMVEC
 4.847381910 -0.000316156 0.000227425
 -2.407973490 4.150063030 0.000560455
 -0.070004262 -0.081367569 5.330532425
PRIMCOORD
9 1 
Si      2.26822      0.02834      0.03594         0.588728     -1.038245     -3.519996
Si     -1.07646      1.83185      3.50999        -1.188483     -1.189237      0.418392
Si      1.30247      2.25210      1.77890         0.786855      1.205488     -1.764817
O      1.39726      1.25651      0.46464        -1.519855      1.670957      0.677446
O      0.37590      1.55117      2.85529        -0.451963     -0.203347      0.764504
O      3.25127      0.37079      4.11961        -0.649808      0.502106      0.094442
O      0.70778      3.74032      1.27551         1.922106     -2.299369      2.292792
O      2.82301      2.46146      2.30929         0.158176     -0.167155      0.929670
O     -1.05820      2.77405      4.82211         0.384379      1.522832      0.117371
