
# total energy =    -71.90269813

CRYSTAL
PRIMVEC
 4.919755413 -0.000320876 0.000230821
 -2.454339466 4.253941465 0.000575136
 -0.011890829 -0.014022945 5.425023322
PRIMCOORD
9 1 
Si      2.29514      0.00612      5.35166        -0.834233     -0.819269      2.569548
Si     -1.11052      1.99613      3.64579        -0.212471     -0.198183     -1.114222
Si      1.32977      2.26210      1.85177         1.498280     -0.833108     -0.449002
O      1.40937      1.21509      0.59532         0.401502     -1.074928     -0.028119
O      0.42026      1.72120      3.08111        -0.771811      0.122484      0.396067
O      3.28460      0.55259      4.23348         0.576624      0.657984     -0.970223
O      0.70138      3.50954      1.13433        -0.696627      2.495264     -0.711305
O      2.87632      2.55049      2.38131        -0.323847     -0.679734      0.804423
O     -1.18197      3.09188      4.83460         0.339658      0.341930     -0.484708
