
# total energy =    -71.64614902

CRYSTAL
PRIMVEC
 4.915338828 -0.000320588 0.000230613
 -2.449741862 4.235136902 0.000572301
 -0.023698216 -0.038470608 5.413391457
PRIMCOORD
9 1 
Si      2.40408      0.06286      0.00677        -0.805149     -1.062879      0.976741
Si     -1.12404      1.95562      3.69193        -0.008178     -0.154778     -4.503591
Si      1.26656      2.25122      1.75973         1.016702     -0.092009     -0.938935
O      1.26168      1.13817      0.47088         1.202098      0.748436      0.899054
O      0.20141      1.62456      2.74079        -1.522426      0.052533      1.867519
O      3.31745      0.55257      4.23979        -0.311971     -1.142355      0.209446
O      0.90793      3.74577      1.22338        -0.610675      0.229599     -0.472756
O      2.67663      2.48363      2.53084         0.943011     -0.403878      1.041145
O     -0.86882      2.91073      4.89889         0.102130      1.829853      0.956161
