
# total energy =    -71.75784757

CRYSTAL
PRIMVEC
 4.922288476 -0.000321041 0.000230939
 -2.457762661 4.264855613 0.000576747
 -0.007530897 -0.001326743 5.432171536
PRIMCOORD
9 1 
Si      2.29589      0.02959      0.02130         0.177530      0.087503      2.309929
Si     -1.12156      2.05594      3.65552         0.595597     -0.582423     -1.478174
Si      1.37219      2.19770      1.76063        -0.785270      0.976572      2.082235
O      1.12156      0.98052      0.76492         1.940946     -1.347617     -1.420175
O      0.37459      1.83491      3.03757         0.262362      0.176840      0.326326
O      3.19219      0.73231      4.36014         0.772416      0.806426     -0.595678
O      0.94790      3.60384      1.07988        -1.267296      0.740123     -0.759896
O      2.90570      2.34469      2.31241        -0.629467      0.205046      0.023474
O     -1.09710      3.24521      4.72792        -1.042770     -1.050982     -0.471715
