
# total energy =    -71.42506747

CRYSTAL
PRIMVEC
 4.837922076 -0.000315539 0.000226981
 -2.402041549 4.137815111 0.000558746
 -0.077420556 -0.089303850 5.317704897
PRIMCOORD
9 1 
Si     -0.14545      4.12448      0.01073         0.544596      2.622198      1.945243
Si      3.74315      1.72537      3.48055         0.553331      0.196446      0.511875
Si      1.30756      2.35640      1.73844         0.471355     -2.706487      1.187194
O      1.28883      1.30608      0.47500         1.087075     -1.305399     -0.993419
O      0.36057      1.49556      2.81173         0.426709      0.771975      0.100023
O      3.16033      0.34977      4.11891         0.358501      0.247020     -0.036136
O      0.83640      3.85552      1.44918        -1.706856      0.092348     -2.729037
O      2.83805      2.37471      2.31876        -0.790416      0.596627      0.138052
O     -0.96796      2.75538      4.77586        -0.979708     -0.509306     -0.123761
