
# total energy =    -71.64808506

CRYSTAL
PRIMVEC
 4.924544602 -0.000321188 0.000231045
 -2.460547094 4.267578627 0.000577058
 -0.001699399 0.002506713 5.434496190
PRIMCOORD
9 1 
Si     -0.17085      4.22460      5.36785         1.811363      0.157497     -0.097480
Si     -1.16978      2.03864      3.62390         1.397253     -1.071043     -0.354628
Si      1.37002      2.22269      1.86948        -1.484470      0.875155     -1.095852
O      1.50853      1.04543      0.73504        -1.869959      2.657552      1.198004
O      0.41891      1.82020      3.15683        -0.389430      0.015208     -0.641514
O      3.33429      0.56573      4.23635        -0.382901      1.029343      0.101899
O      0.64419      3.56629      1.15121         1.865439     -2.272915      0.894866
O      2.84426      2.60762      2.41131        -0.231842     -0.484166     -0.383268
O     -1.20964      3.29098      4.62851        -0.693117     -0.897234      0.388172
