
# total energy =    -71.68905750

CRYSTAL
PRIMVEC
 4.921518605 -0.000320991 0.000230903
 -2.456883416 4.260521679 0.000576085
 -0.010015817 -0.006595423 5.429394967
PRIMCOORD
9 1 
Si     -0.14581      4.24240      0.07161         0.278211     -0.043978     -0.773569
Si     -1.13713      1.99422      3.54907        -0.038796     -0.263549      0.233757
Si      1.31074      2.25867      1.77509         0.849101     -0.840259      0.505800
O      1.24103      0.96742      0.80992         0.185627     -0.188566     -1.127599
O      0.40217      1.91185      3.02813        -1.256897     -0.878550      1.114935
O      3.22092      0.66941      4.32684         0.132404      0.197586      0.068706
O      0.95564      3.71323      1.24403        -1.866234      0.936182     -2.301348
O      2.83457      2.35450      2.26972         1.437116      0.173716      0.852404
O     -1.09431      3.16437      4.66022         0.288119      0.891521      1.444221
