
# total energy =    -71.67473789

CRYSTAL
PRIMVEC
 4.856611335 -0.000316758 0.000227858
 -2.413344902 4.162704912 0.000562255
 -0.062632186 -0.073796257 5.343175791
PRIMCOORD
9 1 
Si      2.27970     -0.03806      5.25284        -0.916189     -1.452304      3.161355
Si     -1.12904      1.87540      3.58144         1.766963      1.007919      0.123916
Si      1.36750      2.18483      1.77494        -0.986917     -0.912059      0.413318
O      1.39522      1.24725      0.42486         0.519192     -0.168107      1.040479
O      0.37477      1.61287      2.98589         0.345813      0.105398     -0.646245
O      3.25347      0.45280      4.13086         0.687451     -0.281831     -0.918405
O      0.69560      3.48408      1.21048        -0.643172      3.083173     -1.145981
O      2.79715      2.51796      2.44797        -0.414150     -0.323134     -0.734627
O     -1.14288      2.96186      4.81543        -0.372833     -1.072067     -1.288665
