
# total energy =    -71.69802382

CRYSTAL
PRIMVEC
 4.923578193 -0.000321125 0.000231000
 -2.459315282 4.267203252 0.000577055
 -0.004735759 0.001355224 5.433825897
PRIMCOORD
9 1 
Si      2.29793      0.01332      5.42647        -1.101993      0.588127     -0.919103
Si     -1.08500      2.06730      3.58815        -1.779064      0.142669      2.839291
Si      1.32935      2.22120      1.85868         0.352678      0.144195     -1.681372
O      1.35063      1.09128      0.70006        -0.331788     -0.251204      0.859673
O      0.41393      1.77505      3.13243         0.842775      0.314527     -0.741517
O      3.24038      0.76784      4.37217         0.585894     -0.180843     -1.093895
O      0.77117      3.46186      0.94953         1.596176     -0.720062      2.883444
O      2.86930      2.41712      2.35366        -0.325672      0.569404     -0.345931
O     -1.20432      3.22450      4.78375         0.198644     -0.614283     -1.828808
