
# total energy =    -71.69531405

CRYSTAL
PRIMVEC
 4.876466275 -0.000318053 0.000228790
 -2.426732657 4.190090870 0.000566071
 -0.047673103 -0.057108243 5.370041072
PRIMCOORD
9 1 
Si     -0.20123      4.11378      5.35320         1.160947      2.469310      2.353563
Si      3.71309      1.89570      3.55771         1.181644     -0.569509     -1.575841
Si      1.32168      2.27531      1.81138         0.744045     -0.949290      0.792206
O      1.28333      1.11308      0.72081         0.754783     -2.036493     -2.346521
O      0.36692      1.70793      3.01175         0.643690      0.270225      0.096791
O      3.26684      0.49618      4.22299        -0.699389      0.218603     -0.064526
O      0.90566      3.66909      1.17919        -1.353056      0.872303     -0.951836
O      2.92899      2.37338      2.19968        -0.907244      0.131846      1.368699
O     -1.07725      3.01171      4.68668        -1.531195     -0.367718      0.328386
