
# total energy =    -71.94305736

CRYSTAL
PRIMVEC
 4.849874481 -0.000316318 0.000227542
 -2.409436949 4.153488581 0.000560943
 -0.068001920 -0.079314017 5.334013431
PRIMCOORD
9 1 
Si      2.29871      0.04158      0.00681        -0.669568     -0.696024     -2.192871
Si     -1.09508      1.83256      3.52382        -0.262574      0.264210      0.553478
Si      1.32067      2.22206      1.76598         0.042697      1.651855      0.059754
O      1.39029      1.28443      0.47928        -0.230038     -0.692917     -0.867379
O      0.37263      1.56698      2.88898        -0.038399     -0.017330      0.292610
O      3.26209      0.39997      4.12301        -0.769781     -0.131182      0.193219
O      0.68983      3.65794      1.24159         1.688793     -1.025101      2.068271
O      2.82138      2.48513      2.33866        -0.092810     -0.350403      0.619138
O     -1.08461      2.81352      4.84230         0.363727      1.010732     -0.722703
