
# total energy =    -71.74789503

CRYSTAL
PRIMVEC
 4.905716438 -0.000319960 0.000230162
 -2.444688306 4.222986375 0.000570566
 -0.026690892 -0.043691846 5.402765686
PRIMCOORD
9 1 
Si     -0.13542      4.10601      5.32796         0.733037      2.957143      2.387862
Si      3.72204      1.88339      3.62722         0.214889      1.119212     -1.436202
Si      1.31807      2.27602      1.83446         0.687199     -0.164066      0.355415
O      1.60859      1.25203      0.63452        -0.338489     -1.466428     -1.384484
O      0.27786      1.66490      2.94607         0.565862      0.233863     -0.263549
O      3.32388      0.42291      4.17488        -0.362881      0.297351     -0.138682
O      0.79948      3.64261      1.16410        -0.091117     -0.176541      0.072824
O      2.77545      2.63708      2.50004        -0.381059     -1.088352      0.552515
O     -1.14205      3.07773      4.74373        -1.010339     -1.710485     -0.140333
