
# total energy =    -71.91291595

CRYSTAL
PRIMVEC
 4.918957678 -0.000320824 0.000230783
 -2.452469653 4.242781834 0.000573413
 -0.018146290 -0.029946524 5.418990871
PRIMCOORD
9 1 
Si     -0.10814      4.20684      0.03410        -0.012008      0.988806     -1.277932
Si      3.74871      1.88572      3.58069         0.786252      0.947147     -0.924553
Si      1.29613      2.31485      1.79768        -0.047750     -0.305000     -0.381091
O      1.53131      1.25498      0.59462        -0.928560     -0.252888     -0.782449
O      0.28113      1.66532      2.85007        -1.005985     -0.220847      0.591809
O      3.28723      0.52624      4.23522        -0.658608     -1.540283      0.783680
O      0.80474      3.79597      1.30606         0.147747     -1.105880     -0.241949
O      2.71422      2.50169      2.48129         1.429961      0.245684      0.973590
O     -0.99173      2.96846      4.76761         0.304994      1.266313      1.271942
