
# total energy =    -71.54669281

CRYSTAL
PRIMVEC
 4.915717495 -0.000320613 0.000230631
 -2.449963492 4.235746766 0.000572389
 -0.023423448 -0.038017206 5.413882264
PRIMCOORD
9 1 
Si      2.40806      0.06234      0.01195        -1.139531     -0.786365      0.827917
Si     -1.13768      1.93905      3.69281         0.470355      1.140810     -4.958894
Si      1.25636      2.25570      1.76757         1.150651      0.262390     -1.251195
O      1.26024      1.15209      0.48875         1.496230      0.181674      0.300676
O      0.19663      1.62274      2.73506        -1.796184     -0.011336      2.188348
O      3.33368      0.55695      4.24110        -0.946302     -2.133726      0.770356
O      0.91158      3.76289      1.22299        -0.513212     -0.079290     -0.249720
O      2.68184      2.48810      2.49761         1.213658     -0.532516      1.591438
O     -0.85364      2.89974      4.89853         0.060519      1.937617      0.809395
