
# total energy =    -71.56905197

CRYSTAL
PRIMVEC
 4.921721642 -0.000321004 0.000230913
 -2.457249648 4.261676430 0.000576255
 -0.009657576 -0.005272131 5.430161770
PRIMCOORD
9 1 
Si      2.32692      0.00187      0.10197        -0.380511     -0.645770     -2.660945
Si     -1.12154      1.98332      3.58298        -0.136584      1.188565     -0.888486
Si      1.31582      2.24491      1.78149         1.174154     -0.419266     -1.218869
O      1.17921      0.89901      0.78166         0.196539      2.054034      0.485345
O      0.39717      1.91639      3.00141        -1.499955     -0.925903      1.722330
O      3.21527      0.70421      4.31508        -0.506994     -1.152660      1.090254
O      0.96155      3.74022      1.20035        -0.673947     -0.983919     -0.736209
O      2.84965      2.35043      2.26781         0.957431     -0.034357      0.730736
O     -1.11157      3.18980      4.65274         0.912081      0.931532      1.466341
