
# total energy =    -71.75787979

CRYSTAL
PRIMVEC
 4.922374250 -0.000321047 0.000230943
 -2.457852569 4.265167400 0.000576793
 -0.007274974 -0.000945102 5.432367658
PRIMCOORD
9 1 
Si      2.28677      0.03303      0.01655         0.585568     -0.057130      2.094323
Si     -1.12431      2.06773      3.66195         0.951925     -1.140981     -2.267804
Si      1.37438      2.19727      1.76594        -0.791626      0.853312      2.162968
O      1.13689      0.99432      0.75892         1.750474     -1.677808     -1.557654
O      0.38709      1.82492      3.03950        -0.295739      0.277109      0.584174
O      3.19884      0.74415      4.35883         0.392765      0.277463     -0.211546
O      0.94284      3.57720      1.07062        -1.527457      1.415202     -1.083998
O      2.89993      2.34581      2.31560        -0.265878      0.254232      0.147503
O     -1.10385      3.23256      4.72845        -0.809774     -0.163574      0.101001
