
# total energy =    -71.75841885

CRYSTAL
PRIMVEC
 4.870020508 -0.000317632 0.000228487
 -2.422298987 4.180686147 0.000564752
 -0.052542228 -0.062959490 5.361323755
PRIMCOORD
9 1 
Si     -0.12024      4.11526      5.32031        -0.715447     -1.722184     -0.032862
Si     -1.12029      1.88541      3.52958        -0.045503      0.891005      2.481874
Si      1.31978      2.19940      1.80408         0.689320     -0.648642     -0.528393
O      1.45595      1.10756      0.60132        -1.513819      2.053388      1.244404
O      0.40131      1.70179      3.04007        -0.082459     -0.237057     -0.276573
O      3.25848      0.45897      4.15486         0.764573      0.721702     -0.662751
O      0.82630      3.58567      1.19452        -0.451307      0.434427     -0.660239
O      2.78868      2.43828      2.40889        -0.133487      0.180436     -1.123707
O     -1.28064      3.13868      4.67194         1.492629     -1.686589     -0.430724
