
# total energy =    -71.93331652

CRYSTAL
PRIMVEC
 4.909508677 -0.000320208 0.000230340
 -2.446699558 4.227098204 0.000571139
 -0.025503975 -0.042649638 5.406717542
PRIMCOORD
9 1 
Si     -0.09450      4.16648      5.36659        -0.740515     -1.246143     -0.055983
Si     -1.12658      1.91302      3.58947        -0.194565      0.580686      1.043750
Si      1.33798      2.25409      1.79568         0.316398     -0.774064     -0.566135
O      1.53301      1.18545      0.54732        -1.237535      1.705843      1.468496
O      0.28501      1.67927      2.88094        -0.001569     -0.327348     -0.174998
O      3.27308      0.52592      4.20579         0.606208     -0.732285     -0.576608
O      0.81731      3.64549      1.19167         0.139119      0.115139     -0.151298
O      2.66966      2.54545      2.64783        -0.298754      0.170699     -1.605772
O     -1.14489      3.03048      4.78686         1.429650      0.487589      0.609502
