
# total energy =    -71.56584133

CRYSTAL
PRIMVEC
 4.915591078 -0.000320604 0.000230625
 -2.449884622 4.235545779 0.000572360
 -0.023521011 -0.038172906 5.413719553
PRIMCOORD
9 1 
Si      2.40708      0.06283      0.00991        -1.046989     -0.892213      0.893055
Si     -1.13323      1.94438      3.69421         0.334744      0.718383     -4.952560
Si      1.25937      2.25417      1.76536         1.138789      0.146861     -1.202609
O      1.25989      1.14720      0.48246         1.412682      0.359568      0.497167
O      0.19929      1.62334      2.73569        -1.802054     -0.006703      2.156927
O      3.32868      0.55654      4.24033        -0.761755     -1.869170      0.606470
O      0.91072      3.75714      1.22335        -0.563382      0.044171     -0.344428
O      2.67941      2.48690      2.50785         1.179314     -0.496933      1.447134
O     -0.85877      2.90221      4.89808         0.113614      1.990919      0.933741
