
# total energy =    -71.56757493

CRYSTAL
PRIMVEC
 4.919271932 -0.000320844 0.000230798
 -2.453703452 4.251326348 0.000574742
 -0.012556124 -0.016856457 5.423434741
PRIMCOORD
9 1 
Si      2.27125      0.00362      5.39092         0.834677      0.213268     -1.036453
Si     -1.06942      2.00562      3.63521        -1.649469     -1.063535      1.847657
Si      1.38426      2.23081      1.83037        -0.744028      1.337785      0.640519
O      1.42057      1.27587      0.52785         0.452183     -0.814447      0.404797
O      0.38876      1.66189      3.07640         1.639128      0.635394     -1.453308
O      3.29457      0.46728      4.14926        -0.324910      1.607986      0.632569
O      0.63742      3.51458      1.11304         1.416931      0.079430      1.949241
O      2.86060      2.59723      2.49757        -1.464232     -0.434569     -1.230283
O     -1.21314      3.13699      4.87070        -0.146879     -1.591934     -1.746951
