
# total energy =    -71.71344158

CRYSTAL
PRIMVEC
 4.918776238 -0.000320812 0.000230775
 -2.452371221 4.241985299 0.000573289
 -0.018780756 -0.031054926 5.418480398
PRIMCOORD
9 1 
Si     -0.11374      4.22615      0.05342         0.765451      0.082532     -1.419316
Si      3.72840      1.89942      3.57587         1.325388      0.069978     -1.435059
Si      1.28113      2.31893      1.79791         0.154279     -0.490541     -1.005748
O      1.51479      1.24565      0.60429        -0.933708     -0.245854     -0.975940
O      0.28657      1.66453      2.81456        -2.611343     -0.549375      1.807344
O      3.31007      0.51270      4.24318        -0.856180     -1.061515      0.714433
O      0.84597      3.79021      1.31656        -0.828576     -0.000100     -1.152620
O      2.69490      2.49008      2.45160         2.616744      0.216412      1.818541
O     -0.95350      2.93441      4.77421         0.323657      1.973158      1.646882
