
# total energy =    -71.73574530

CRYSTAL
PRIMVEC
 4.844292356 -0.000315954 0.000227280
 -2.406077392 4.145962155 0.000559879
 -0.072466004 -0.083930308 5.326248156
PRIMCOORD
9 1 
Si      2.23973      0.00202      0.03470         2.188669      0.126313     -1.368590
Si     -1.06745      1.81736      3.49773        -1.512255     -1.975668      0.094550
Si      1.28954      2.30034      1.77596         1.252656     -0.387038     -1.466744
O      1.37732      1.25342      0.45917        -1.280959      1.616035      0.809184
O      0.37184      1.52873      2.82913        -0.241722      0.000285      0.700674
O      3.22574      0.34565      4.11736        -0.347609      0.884515      0.092328
O      0.76252      3.79701      1.35528        -0.097704     -1.345805     -0.449516
O      2.82793      2.42988      2.29231         0.180158      0.028791      1.063004
O     -1.01983      2.75552      4.80023        -0.115183      1.074495      0.523509
