
# total energy =    -71.62742278

CRYSTAL
PRIMVEC
 4.918980148 -0.000320825 0.000230784
 -2.452886406 4.248304892 0.000574290
 -0.014116673 -0.021174413 5.421756866
PRIMCOORD
9 1 
Si      2.28334     -0.01324      5.39193         0.817500     -1.051326     -0.578630
Si     -1.08918      1.95555      3.67601         0.392176     -0.504898     -2.688370
Si      1.40712      2.25085      1.82534        -1.570407      0.219034     -0.707313
O      1.47193      1.28511      0.49295         0.037503     -0.105920      0.650895
O      0.43153      1.64863      2.97127        -2.360154      0.123043      1.234442
O      3.27387      0.49464      4.11323        -0.706427     -0.587593      1.713974
O      0.66438      3.56762      1.22839        -0.203496      1.249350     -1.017999
O      2.75688      2.60662      2.55707         2.083672     -0.497587      0.134470
O     -1.23273      3.09158      4.79297         1.536352      1.146963      1.238831
