
# total energy =    -71.60201205

CRYSTAL
PRIMVEC
 4.901493403 -0.000319685 0.000229964
 -2.442716905 4.218623793 0.000569951
 -0.028611479 -0.044771089 5.398286842
PRIMCOORD
9 1 
Si     -0.15746      4.16811      5.39371         0.683791     -1.788039     -2.308783
Si      3.67694      1.89980      3.59434         2.028111     -0.537554     -0.896744
Si      1.33747      2.27923      1.87368        -0.153216     -0.295235     -1.388305
O      1.60825      1.22926      0.62544        -1.737635      1.293281      0.533428
O      0.33838      1.66660      2.97769        -0.790252      0.195993      0.295898
O      3.34120      0.36425      4.11806        -1.362004      1.213384      0.682455
O      0.78438      3.61142      1.15639         0.301150     -0.285294      0.604741
O      2.82750      2.62575      2.38310         0.266284     -0.838300      1.127925
O     -1.18354      3.02059      4.74168         0.741027      1.039253      1.336100
