
# total energy =    -71.61931345

CRYSTAL
PRIMVEC
 4.918981889 -0.000320825 0.000230784
 -2.452934682 4.248513268 0.000574322
 -0.013975085 -0.020835852 5.421862382
PRIMCOORD
9 1 
Si      2.28016     -0.00978      5.39567         0.931656     -1.152337     -0.910705
Si     -1.08720      1.96158      3.67571         0.312242     -0.707337     -2.530480
Si      1.40943      2.24760      1.82623        -1.725411      0.337117     -0.679742
O      1.46835      1.28411      0.49201        -0.003267     -0.006736      0.745607
O      0.43243      1.64757      2.97831        -2.194131      0.223667      1.047271
O      3.27859      0.49159      4.10917        -0.783312     -0.439632      1.776220
O      0.65958      3.56222      1.21823        -0.037202      1.093903     -0.729523
O      2.76049      2.60771      2.55444         2.018714     -0.476814      0.077618
O     -1.23567      3.09323      4.79717         1.507218      1.133119      1.172804
