
# total energy =    -71.53592505

CRYSTAL
PRIMVEC
 4.902692250 -0.000319763 0.000230020
 -2.443262892 4.219884871 0.000570130
 -0.027941933 -0.044387187 5.399607321
PRIMCOORD
9 1 
Si     -0.15278      4.14411      5.37649         0.158506      0.182778     -1.000951
Si      3.67923      1.89589      3.62467         1.782799     -0.471267     -3.025100
Si      1.33229      2.27609      1.86745        -0.176833      0.265117     -1.093281
O      1.61617      1.25129      0.64660        -0.881362     -0.781581     -1.141843
O      0.33578      1.66428      2.95921        -1.410001      0.132251      0.863940
O      3.35306      0.37521      4.12510        -1.524134      0.670325      0.861238
O      0.78726      3.62519      1.15342         0.227841     -0.482771      0.569409
O      2.80044      2.64277      2.39437         1.150830     -1.093482      1.919099
O     -1.17587      3.02444      4.72180         0.669958      1.592010      2.055622
