
# total energy =    -71.75322584

CRYSTAL
PRIMVEC
 4.875315165 -0.000317977 0.000228736
 -2.425940188 4.188411047 0.000565835
 -0.048454096 -0.058149715 5.368532163
PRIMCOORD
9 1 
Si     -0.17439      4.11141      5.34668        -0.235514      1.539848      1.386001
Si      3.69646      1.88984      3.56483         1.947886     -0.197802     -2.432204
Si      1.33199      2.26309      1.81133        -0.349174     -0.122351      0.894703
O      1.32512      1.12021      0.72362         0.496985     -2.330241     -2.795775
O      0.37582      1.69928      3.02138         0.135246      0.437302     -0.011419
O      3.27840      0.50085      4.20848        -1.021823     -0.675149      0.353179
O      0.88655      3.67422      1.17182        -0.675308     -0.094577     -0.329354
O      2.89323      2.37915      2.22488         0.110180      0.206176      1.389231
O     -1.12343      3.01791      4.65763        -0.426844      1.237519      1.562284
