
# total energy =    -71.81057104

CRYSTAL
PRIMVEC
 4.922779304 -0.000321073 0.000230962
 -2.458340283 4.266090266 0.000576920
 -0.006390174 0.000168414 5.432989986
PRIMCOORD
9 1 
Si      2.26501      0.04211      0.01766         2.037632     -1.138800     -0.155377
Si     -1.12220      2.09240      3.65576         1.219928     -2.043756     -2.592447
Si      1.37294      2.20269      1.80496        -1.049857      0.157750      0.272053
O      1.21839      1.01391      0.71362         0.174084     -0.031311      0.353458
O      0.41938      1.79614      3.05922        -1.170004      0.445223      0.747716
O      3.22364      0.78170      4.35565        -0.618800     -1.323428      0.644498
O      0.89508      3.51512      1.01738        -1.164679      1.533526     -0.462384
O      2.87968      2.35549      2.33049         0.574558      0.514412      0.143076
O     -1.13846      3.19843      4.74010         0.020543      1.874954      1.056048
