
# total energy =    -71.90831727

CRYSTAL
PRIMVEC
 4.919809820 -0.000320879 0.000230823
 -2.454405237 4.254179866 0.000575172
 -0.011831385 -0.013779628 5.425173273
PRIMCOORD
9 1 
Si      2.29666      0.00562      5.35197        -0.881847     -0.920958      2.536318
Si     -1.11613      1.99422      3.64728         0.025397     -0.084131     -1.597317
Si      1.32668      2.26466      1.85397         1.568713     -0.946035     -0.697423
O      1.41054      1.20475      0.60124         0.274934     -0.869040     -0.000122
O      0.42411      1.72768      3.08029        -1.051918      0.058374      0.612067
O      3.28559      0.56504      4.23844         0.444798      0.282761     -0.838953
O      0.70649      3.51636      1.13638        -0.711486      2.415555     -0.825697
O      2.87450      2.54394      2.37108        -0.146862     -0.659361      0.978316
O     -1.17912      3.08535      4.82689         0.441255      0.740907     -0.179493
