
# total energy =    -71.80994647

CRYSTAL
PRIMVEC
 4.918872942 -0.000320818 0.000230779
 -2.452423264 4.242385914 0.000573351
 -0.018460461 -0.030505618 5.418739646
PRIMCOORD
9 1 
Si     -0.11120      4.21613      0.04470         0.379738      0.530531     -1.369240
Si      3.73779      1.89220      3.57922         1.136186      0.529606     -1.389495
Si      1.28862      2.31715      1.79832         0.005369     -0.379723     -0.763597
O      1.52416      1.25065      0.60059        -0.923483     -0.281107     -0.933507
O      0.28620      1.66541      2.83075        -1.969253     -0.404761      1.300777
O      3.29964      0.52118      4.23821        -0.824076     -1.433399      0.829775
O      0.82579      3.79377      1.31221        -0.364246     -0.566122     -0.743120
O      2.70193      2.49561      2.46464         2.202810      0.233130      1.506312
O     -0.97304      2.94935      4.76904         0.355395      1.749111      1.564576
