
# total energy =    -71.71753863

CRYSTAL
PRIMVEC
 4.922150343 -0.000321032 0.000230933
 -2.457645043 4.264189602 0.000576644
 -0.008042004 -0.002146709 5.431764940
PRIMCOORD
9 1 
Si      2.31425      0.02314      0.03995        -0.737293      0.178517      1.550997
Si     -1.11430      2.03064      3.63769        -0.376726      0.433874      0.043231
Si      1.36456      2.20253      1.75813        -0.755506      0.854730      1.416994
O      1.10507      0.94472      0.76767         1.995137     -0.020373     -0.601197
O      0.35301      1.85586      3.03519         1.482987     -0.026989     -0.328290
O      3.18506      0.71516      4.35775         1.109862      1.278384     -0.963710
O      0.94978      3.66048      1.09415        -0.454390     -0.799982      0.180595
O      2.91193      2.34382      2.30586        -1.199292      0.156356     -0.236346
O     -1.09139      3.26131      4.72246        -1.090849     -2.069434     -1.072237
