
# total energy =    -71.61837508

CRYSTAL
PRIMVEC
 4.921982713 -0.000321021 0.000230925
 -2.457536159 4.263158291 0.000576482
 -0.008775396 -0.003434206 5.431131897
PRIMCOORD
9 1 
Si      2.33296      0.01522      0.07980        -1.698606      0.058104     -1.479143
Si     -1.10845      1.99824      3.61219        -1.184354      1.465127      0.698800
Si      1.34579      2.21769      1.76742        -0.297415      0.251469      0.201223
O      1.11502      0.89515      0.76382         1.378847      1.925581      0.606424
O      0.34875      1.88622      3.02479         1.910535     -0.299819     -0.558456
O      3.19266      0.70999      4.33888         0.420236      0.304318     -0.083821
O      0.94711      3.72734      1.12154         0.652267     -2.359615      1.212784
O      2.89987      2.34519      2.29179        -1.089165      0.098261     -0.207723
O     -1.10009      3.25002      4.69672        -0.111426     -1.415419     -0.395491
