
# total energy =    -71.91001682

CRYSTAL
PRIMVEC
 4.909271690 -0.000320192 0.000230329
 -2.446582936 4.226817755 0.000571099
 -0.025587245 -0.042755709 5.406457372
PRIMCOORD
9 1 
Si     -0.09648      4.16212      5.36108        -0.729736     -1.205416      0.172340
Si     -1.12903      1.90944      3.58829        -0.346529      0.556898      1.433275
Si      1.33452      2.25811      1.79855         0.525904     -0.939946     -0.410894
O      1.54360      1.18428      0.54840        -1.383251      1.922643      1.634649
O      0.27711      1.67860      2.89027         0.618062     -0.271357     -0.522854
O      3.27311      0.51773      4.20826         0.777412     -0.468197     -0.817184
O      0.81538      3.64576      1.18949         0.170724      0.040076     -0.098138
O      2.68421      2.55241      2.64472        -0.905025      0.148809     -1.892127
O     -1.14617      3.03765      4.78387         1.297360      0.195152      0.484097
