
# total energy =    -71.72754570

CRYSTAL
PRIMVEC
 4.881530961 -0.000318383 0.000229027
 -2.430317764 4.197078496 0.000567036
 -0.044360170 -0.053203145 5.376472594
PRIMCOORD
9 1 
Si      2.26031      0.06931      0.08342        -0.096169     -2.079535     -3.003295
Si     -1.07708      1.88175      3.52413        -0.396633      0.433703      0.803261
Si      1.35126      2.25306      1.78487        -0.072892      0.183483     -1.721403
O      1.13291      1.05785      0.62473         0.473644      1.344259      0.800979
O      0.44400      1.74319      2.98548        -0.461253     -0.428226      0.786508
O      3.17644      0.56443      4.22580        -0.411448     -0.340142     -0.174889
O      0.87218      3.70167      1.16196         0.536419     -0.972205      1.264804
O      2.91509      2.36126      2.20694         0.091866     -0.026202      0.800483
O     -1.04666      2.89826      4.78580         0.345795      1.864483      0.418846
