
# total energy =    -71.75329901

CRYSTAL
PRIMVEC
 4.922250258 -0.000321039 0.000230938
 -2.457726251 4.264693505 0.000576722
 -0.007659100 -0.001525662 5.432071473
PRIMCOORD
9 1 
Si      2.30058      0.02790      0.02485        -0.044096      0.133526      2.270186
Si     -1.11985      2.04969      3.65148         0.375152     -0.308842     -1.068466
Si      1.37069      2.19841      1.75906        -0.789422      0.994736      1.952359
O      1.11562      0.97234      0.76661         1.991156     -1.070160     -1.246997
O      0.36849      1.84007      3.03694         0.573798      0.120618      0.153403
O      3.18952      0.72704      4.36031         0.920937      1.004921     -0.766959
O      0.94924      3.61792      1.08378        -1.085555      0.343737     -0.518693
O      2.90807      2.34431      2.31086        -0.797494      0.186858     -0.042481
O     -1.09465      3.25070      4.72730        -1.114297     -1.424757     -0.715259
