
# total energy =    -71.87396394

CRYSTAL
PRIMVEC
 4.892542452 -0.000319101 0.000229544
 -2.436952655 4.209866135 0.000568800
 -0.035717286 -0.047222599 5.388934908
PRIMCOORD
9 1 
Si     -0.16786      4.14503      5.35855        -0.630799      0.800569      0.086921
Si     -1.05048      1.92293      3.62358        -0.727997     -0.591673     -3.201047
Si      1.36204      2.23000      1.79637         0.160541      0.656759     -1.321020
O      1.30941      1.15878      0.53642         0.096179      0.237737      0.613618
O      0.46325      1.71664      3.02561        -1.368053     -0.234796      0.748682
O      3.10988      0.59962      4.12050        -0.008792     -1.965873      0.829369
O      0.76424      3.68512      1.21470         0.796278     -1.160580      0.271372
O      2.85448      2.43782      2.36526         0.983861      0.168979      0.414419
O     -1.13307      2.93309      4.81107         0.717593      2.132855      1.540813
