
# total energy =    -71.67324278

CRYSTAL
PRIMVEC
 4.918985722 -0.000320826 0.000230784
 -2.452800848 4.247887688 0.000574226
 -0.014408661 -0.021862318 5.421551169
PRIMCOORD
9 1 
Si      2.29050     -0.02121      5.38397         0.519593     -0.781716      0.103356
Si     -1.09273      1.94304      3.67384         0.484199     -0.035440     -2.752554
Si      1.40096      2.25753      1.82284        -1.180363     -0.006788     -0.655818
O      1.47917      1.28687      0.49597         0.096032     -0.303902      0.483297
O      0.42539      1.65092      2.95948        -2.496137     -0.030415      1.431577
O      3.26322      0.49960      4.12438        -0.478165     -0.771250      1.466039
O      0.67353      3.58074      1.24675        -0.446403      1.467662     -1.422846
O      2.75340      2.60351      2.56258         1.988770     -0.541269      0.119009
O     -1.22408      3.09031      4.78684         1.516917      0.997071      1.223290
