
# total energy =    -71.79518626

CRYSTAL
PRIMVEC
 4.922712842 -0.000321069 0.000230959
 -2.458257769 4.265975433 0.000576905
 -0.006516122 0.000032953 5.432908843
PRIMCOORD
9 1 
Si      2.26657      0.04150      0.01664         1.851232     -0.951677      0.233077
Si     -1.12379      2.09094      3.65977         1.284032     -2.106774     -2.946273
Si      1.37411      2.20156      1.79805        -1.007979      0.201259      0.733564
O      1.20506      1.01298      0.72133         0.497730     -0.481510     -0.111210
O      0.41660      1.79952      3.05495        -1.162888      0.441406      0.814786
O      3.22076      0.77796      4.35523        -0.570016     -1.218342      0.665367
O      0.90468      3.52066      1.02678        -1.369706      1.747973     -0.762379
O      2.88191      2.35338      2.32795         0.529486      0.479784      0.190575
O     -1.13310      3.20063      4.73655        -0.045569      1.866571      1.193251
