
# total energy =    -71.96973147

CRYSTAL
PRIMVEC
 4.919030263 -0.000320829 0.000230787
 -2.452509999 4.243175000 0.000573475
 -0.017839256 -0.029377044 5.419233559
PRIMCOORD
9 1 
Si     -0.10509      4.19890      0.02176        -0.352004      1.401372     -1.035022
Si      3.76069      1.88052      3.58089         0.302455      1.204930     -0.159197
Si      1.30357      2.31213      1.79653        -0.005310     -0.255527      0.032049
O      1.53620      1.25870      0.58672        -0.926289     -0.164524     -0.586253
O      0.27366      1.66470      2.87082         0.158608     -0.069689     -0.186452
O      3.27322      0.52764      4.23412        -0.355429     -1.385815      0.553303
O      0.78403      3.79551      1.29929         0.618376     -1.559650      0.234382
O      2.72991      2.50838      2.50027         0.460783      0.273960      0.305628
O     -1.00970      2.99059      4.76923         0.167561      0.578514      0.846206
