
# total energy =    -71.61641636

CRYSTAL
PRIMVEC
 4.900895680 -0.000319646 0.000229936
 -2.442425416 4.217992517 0.000569862
 -0.028983753 -0.044977247 5.397620295
PRIMCOORD
9 1 
Si      2.28380     -0.04090      5.39742         0.949293     -2.530762     -2.594807
Si      3.67989      1.90063      3.57650         2.104134     -0.486971      0.453153
Si      1.33972      2.28039      1.87401        -0.089951     -0.587583     -1.318765
O      1.59854      1.22163      0.61569        -2.014655      2.033064      1.163405
O      0.33636      1.66841      2.98843        -0.306883      0.232773     -0.059330
O      3.33018      0.36282      4.11715        -1.195662      1.430635      0.536909
O      0.78403      3.60333      1.16003         0.236934     -0.009214      0.486219
O      2.84260      2.61403      2.38210        -0.377022     -0.633627      0.565470
O     -1.18471      3.02287      4.75698         0.672831      0.536323      0.753638
