
# total energy =    -71.73069441

CRYSTAL
PRIMVEC
 4.846363937 -0.000316089 0.000227377
 -2.407358809 4.148693304 0.000560262
 -0.070820272 -0.082208639 5.329113086
PRIMCOORD
9 1 
Si      2.25670      0.02075      0.03941         1.302128     -1.016064     -3.102766
Si     -1.07147      1.82937      3.50556        -1.426564     -1.619637      0.282815
Si      1.29670      2.26729      1.78055         1.017577      0.839507     -1.976949
O      1.39463      1.25057      0.46051        -1.714165      2.075466      0.946895
O      0.37563      1.54412      2.84462        -0.481378     -0.206336      0.843675
O      3.24403      0.36069      4.11870        -0.557751      0.673477      0.074028
O      0.72329      3.76420      1.29916         1.379287     -2.188540      1.544595
O      2.82415      2.45113      2.30119         0.209365     -0.101481      1.008760
O     -1.04598      2.76432      4.81381         0.297448      1.531965      0.371243
