
# total energy =    -71.90797425

CRYSTAL
PRIMVEC
 4.919866480 -0.000320883 0.000230826
 -2.454473673 4.254416452 0.000575207
 -0.011769819 -0.013537370 5.425323344
PRIMCOORD
9 1 
Si      2.29789      0.00480      5.35315        -0.900063     -0.997147      2.409458
Si     -1.12173      1.99229      3.64822         0.268991      0.066809     -2.019481
Si      1.32412      2.26690      1.85592         1.593349     -0.996119     -0.957453
O      1.41188      1.19388      0.60715         0.130069     -0.645086      0.106906
O      0.42732      1.73419      3.07983        -1.280234      0.005811      0.760828
O      3.28686      0.57766      4.24288         0.264934     -0.142841     -0.702546
O      0.71117      3.52463      1.13793        -0.662202      2.232980     -0.821401
O      2.87260      2.53699      2.36144         0.030226     -0.634810      1.125686
O     -1.17601      3.07927      4.81907         0.546730      1.110036      0.112171
