
# total energy =    -71.64925998

CRYSTAL
PRIMVEC
 4.919387461 -0.000320852 0.000230803
 -2.453873614 4.252024826 0.000574847
 -0.012350223 -0.016044041 5.423850818
PRIMCOORD
9 1 
Si      2.27691      0.00414      5.37634         0.525198      0.267268      0.276691
Si     -1.07475      2.00612      3.63276        -1.666037     -0.869093      1.811873
Si      1.36829      2.23711      1.83422        -0.115702      0.945032      0.621387
O      1.41266      1.26908      0.54611         0.667929     -1.289743      0.109223
O      0.38922      1.67481      3.08471         1.575303      0.527732     -1.313685
O      3.28976      0.47869      4.17472         0.082753      1.745151     -0.043720
O      0.65187      3.50357      1.11275         0.811875      0.859321      1.355669
O      2.87450      2.58854      2.46979        -1.549605     -0.501911     -0.908843
O     -1.20295      3.13462      4.87320        -0.338867     -1.683731     -1.912215
