
# total energy =    -71.56082895

CRYSTAL
PRIMVEC
 4.919201399 -0.000320840 0.000230795
 -2.453585491 4.250871800 0.000574674
 -0.012716115 -0.017418758 5.423167438
PRIMCOORD
9 1 
Si      2.26883      0.00363      5.39914         0.933253     -0.030954     -1.737479
Si     -1.06871      2.00349      3.64003        -1.425961     -1.170126      1.492261
Si      1.39376      2.22883      1.82889        -1.101697      1.401591      0.534717
O      1.42729      1.27779      0.51683         0.277781     -0.448346      0.640226
O      0.39337      1.65516      3.06649         1.306027      0.711096     -1.346283
O      3.29693      0.46456      4.13394        -0.547058      1.430265      1.008380
O      0.63186      3.52243      1.11894         1.614208     -0.210170      2.086716
O      2.84688      2.60169      2.51250        -1.157901     -0.412938     -1.252899
O     -1.22046      3.13374      4.86371         0.122818     -1.264115     -1.421470
