
# total energy =    -71.71216113

CRYSTAL
PRIMVEC
 4.891205411 -0.000319014 0.000229481
 -2.436143596 4.208574711 0.000568628
 -0.036842869 -0.047639953 5.387552975
PRIMCOORD
9 1 
Si     -0.18613      4.15063      5.36427         0.443311      0.152408     -0.331695
Si     -1.03267      1.93437      3.62957        -0.977911     -1.777103     -3.351555
Si      1.36384      2.22985      1.76861         0.343617      0.246865     -0.494066
O      1.27583      1.11078      0.50714        -0.575094      1.898887      1.870777
O      0.47826      1.71897      3.03714        -0.974599     -0.095419      0.127315
O      3.07877      0.61842      4.13118         0.452634     -1.635098      0.643589
O      0.77032      3.70336      1.22499         0.794109     -1.438339      0.079383
O      2.87070      2.41221      2.38058         0.003774      0.366424     -0.550647
O     -1.11155      2.92701      4.80962         0.486048      2.303068      2.045649
