
# total energy =    -71.60868323

CRYSTAL
PRIMVEC
 4.904507665 -0.000319881 0.000230105
 -2.444090070 4.221758587 0.000570395
 -0.027123565 -0.043927702 5.401530984
PRIMCOORD
9 1 
Si     -0.14382      4.11243      5.34311         0.427770      2.424735      1.323929
Si      3.70020      1.88658      3.63907         1.102600      0.599395     -3.130436
Si      1.32313      2.27436      1.84834         0.200611      0.452127     -0.028801
O      1.61357      1.26685      0.65480        -0.178384     -2.280359     -2.283744
O      0.30755      1.66333      2.94661        -0.845648      0.199122      0.624243
O      3.34403      0.40236      4.15067        -1.133125      0.143361      0.574582
O      0.79486      3.63781      1.15811        -0.075765     -0.261049      0.189073
O      2.77958      2.64817      2.44547         0.773427     -1.241963      1.682535
O     -1.15446      3.05508      4.72647        -0.264546     -0.030584      1.029931
