
# total energy =    -71.58893488

CRYSTAL
PRIMVEC
 4.901792448 -0.000319704 0.000229978
 -2.442856580 4.218939395 0.000569995
 -0.028434679 -0.044670711 5.398618929
PRIMCOORD
9 1 
Si     -0.15651      4.16261      5.39035         0.520817     -1.314938     -2.046614
Si      3.67652      1.89911      3.60292         1.977753     -0.553778     -1.554204
Si      1.33627      2.27847      1.87281        -0.173267     -0.144802     -1.373054
O      1.61149      1.23437      0.63089        -1.536170      0.796606      0.105124
O      0.33874      1.66587      2.97255        -0.998927      0.179974      0.489912
O      3.34549      0.36610      4.11911        -1.431756      1.086428      0.754507
O      0.78483      3.61524      1.15509         0.310911     -0.379740      0.610747
O      2.82009      2.63088      2.38454         0.556710     -0.921433      1.389273
O     -1.18229      3.02031      4.73515         0.757537      1.267658      1.594618
