
# total energy =    -71.80258862

CRYSTAL
PRIMVEC
 4.919014396 -0.000320828 0.000230786
 -2.452702917 4.247259065 0.000574129
 -0.014862072 -0.022911614 5.421254449
PRIMCOORD
9 1 
Si     -0.15032      4.21223      5.37318        -0.035113     -0.266459      1.156921
Si     -1.09685      1.92435      3.66363         0.412476      0.618291     -2.257533
Si      1.38886      2.26744      1.81748        -0.556133     -0.253353     -0.371465
O      1.49049      1.28804      0.50265         0.124571     -0.477930      0.330790
O      0.40503      1.65416      2.94820        -2.164528     -0.123927      1.301062
O      3.24536      0.50359      4.14737         0.110915     -0.677066      0.781951
O      0.68516      3.60701      1.26777        -0.518856      1.401313     -1.651754
O      2.75681      2.59636      2.57123         1.308376     -0.599729     -0.186273
O     -1.20440      3.09258      4.78298         1.298644      0.377454      0.862856
