
# total energy =    -71.89203186

CRYSTAL
PRIMVEC
 4.851830398 -0.000316446 0.000227634
 -2.410560690 4.156206963 0.000561331
 -0.066439357 -0.077715700 5.336716112
PRIMCOORD
9 1 
Si      2.25312     -0.03023      5.30644        -1.110169     -0.933843      0.418938
Si     -1.11194      1.83413      3.53809         0.687045      1.436845      0.404464
Si      1.33592      2.20779      1.75527        -0.241514      1.212893      1.891239
O      1.38113      1.30129      0.48293         0.767881     -2.423926     -1.952986
O      0.36925      1.57918      2.91943         0.292504      0.079635     -0.120939
O      3.26261      0.42228      4.12750        -0.544894     -0.612232      0.059322
O      0.69350      3.58057      1.23648         0.321070      1.394577      0.320274
O      2.81924      2.50037      2.36904        -0.336641     -0.490331      0.272127
O     -1.10188      2.85625      4.85122         0.168366      0.331634     -1.269600
