
# total energy =    -71.72842296

CRYSTAL
PRIMVEC
 4.921406050 -0.000320984 0.000230898
 -2.456637980 4.259825118 0.000575983
 -0.010124820 -0.007358831 5.428947939
PRIMCOORD
9 1 
Si     -0.15301      4.22917      0.04585         0.513882      0.766661      0.416872
Si     -1.14624      2.00002      3.52979         0.022047     -0.736443      1.968373
Si      1.31494      2.26071      1.77272         0.289266     -0.277959      1.823191
O      1.27861      1.00902      0.81465         0.158312     -1.393996     -1.941208
O      0.38691      1.89732      3.06024         0.151789     -0.590065     -0.197686
O      3.22449      0.64896      4.33670         0.576299      1.087637     -0.727034
O      0.92981      3.70627      1.24141        -1.663437      0.832786     -2.041767
O      2.84445      2.35868      2.28202         0.530347      0.500295      0.217553
O     -1.07913      3.16216      4.68394        -0.569016     -0.179594      0.491010
