
# total energy =    -71.70484136

CRYSTAL
PRIMVEC
 4.879047161 -0.000318221 0.000228911
 -2.428631937 4.193646883 0.000566558
 -0.046084751 -0.055053752 5.373304336
PRIMCOORD
9 1 
Si      2.24181      0.02520      0.03591         2.009784     -0.117871     -0.189566
Si     -1.11313      1.89653      3.52394        -0.719519     -0.637513      1.599308
Si      1.31787      2.27925      1.81780         1.514310     -1.209425     -1.630328
O      1.21108      1.05122      0.65551        -0.282154      1.828211      1.059682
O      0.37746      1.73261      2.99324         1.414585     -0.326524      0.156546
O      3.22262      0.50419      4.24519         0.085687      1.327590     -1.026656
O      0.90331      3.68579      1.16674        -0.632199     -0.033926      0.160470
O      2.96587      2.36499      2.18606        -2.101041      0.114817      0.608707
O     -1.03256      2.97003      4.74958        -1.305376     -0.889760     -0.736746
