
# total energy =    -71.75911938

CRYSTAL
PRIMVEC
 4.922329719 -0.000321044 0.000230941
 -2.457804657 4.265013761 0.000576771
 -0.007402795 -0.001133016 5.432270318
PRIMCOORD
9 1 
Si      2.29126      0.03130      0.01854         0.380416      0.022244      2.233602
Si     -1.12307      2.06199      3.65905         0.784776     -0.847056     -1.857443
Si      1.37342      2.19733      1.76292        -0.788127      0.929949      2.133124
O      1.12866      0.98789      0.76236         1.856842     -1.553358     -1.484032
O      0.38085      1.82985      3.03840        -0.025984      0.226856      0.440763
O      3.19533      0.73807      4.35962         0.595771      0.558881     -0.439875
O      0.94580      3.59019      1.07552        -1.412935      1.095257     -0.900103
O      2.90295      2.34518      2.31398        -0.448050      0.227709      0.096411
O     -1.10019      3.23908      4.72825        -0.938830     -0.615249     -0.220861
