
# total energy =    -71.65382276

CRYSTAL
PRIMVEC
 4.883158860 -0.000318489 0.000229104
 -2.431260555 4.199365318 0.000567363
 -0.043054397 -0.051980709 5.378549687
PRIMCOORD
9 1 
Si      2.27636      0.06869      0.07415        -1.335644     -1.388140     -1.979706
Si     -1.06012      1.87655      3.53902         0.342199      1.326613     -0.256567
Si      1.37588      2.23603      1.73716        -1.442908      0.726845      0.548019
O      1.08907      1.10184      0.62765         1.913129     -1.211384     -1.108861
O      0.48393      1.73892      2.99881        -1.261343     -0.112693      0.623973
O      3.13703      0.60205      4.20487        -0.586392     -1.328221      0.550035
O      0.86130      3.68967      1.18840         0.074100     -0.000874      0.387939
O      2.87529      2.35891      2.24139         1.772978      0.024629      1.001317
O     -1.05183      2.89084      4.81639         0.529903      1.972000      0.223515
