
# total energy =    -71.52746215

CRYSTAL
PRIMVEC
 4.903597752 -0.000319822 0.000230063
 -2.443668480 4.220825754 0.000570263
 -0.027505514 -0.044138433 5.400579320
PRIMCOORD
9 1 
Si     -0.14853      4.12607      5.35955         0.152656      1.456385      0.178201
Si      3.68742      1.89128      3.63727         1.504613     -0.030366     -3.561259
Si      1.32779      2.27448      1.85875        -0.051560      0.513134     -0.551806
O      1.61600      1.26416      0.65619        -0.392432     -1.935992     -2.088825
O      0.32532      1.66341      2.95045        -1.379150      0.144553      0.945358
O      3.35241      0.38794      4.13570        -1.435676      0.301857      0.831379
O      0.79089      3.63258      1.15472         0.065091     -0.397109      0.379150
O      2.78681      2.64872      2.41449         1.225144     -1.195120      2.042421
O     -1.16597      3.03684      4.71930         0.332591      1.132431      1.828030
