
# total energy =    -71.67004945

CRYSTAL
PRIMVEC
 4.923890938 -0.000321146 0.000231015
 -2.459745777 4.267651328 0.000577108
 -0.003688993 0.001933570 5.434211564
PRIMCOORD
9 1 
Si     -0.14480      4.26014      5.38062        -1.564201      0.371381      1.827584
Si     -1.09906      2.04515      3.60707        -1.196034      0.938813      0.046838
Si      1.30492      2.23657      1.84973         2.112133     -0.806059      1.746046
O      1.41348      1.14254      0.74563         0.708733     -3.569151     -2.108129
O      0.43153      1.78078      3.15525        -0.066523      0.274981     -0.358877
O      3.27081      0.72972      4.33937         0.225867     -0.829165     -0.462364
O      0.74475      3.41669      1.03114        -1.245308      3.363836     -0.955027
O      2.85548      2.49193      2.35521         0.202542     -0.092479      0.613638
O     -1.23601      3.23095      4.73281         0.857431      0.355179     -0.376270
