
# total energy =    -71.82255924

CRYSTAL
PRIMVEC
 4.919150998 -0.000320836 0.000230792
 -2.452578353 4.244160817 0.000573632
 -0.017100686 -0.027900752 5.419800476
PRIMCOORD
9 1 
Si     -0.11750      4.16046      5.40598        -0.915345      1.946791      0.452129
Si      3.79036      1.87512      3.58320        -1.281138      1.325136      1.952589
Si      1.32236      2.30391      1.79476         0.206879     -0.193249      0.650663
O      1.53871      1.26681      0.56206        -0.850985      0.084187      0.021773
O      0.26267      1.66274      2.91705         2.707866      0.000271     -1.674244
O      3.23690      0.51882      4.23482         0.919907     -0.198630     -0.705946
O      0.74038      3.77655      1.28653         1.208079     -1.962949      0.809909
O      2.76898      2.52824      2.54736        -1.623872      0.318861     -1.248285
O     -1.05408      3.04797      4.77961        -0.369035     -1.296604     -0.273779
