
# total energy =    -71.95841428

CRYSTAL
PRIMVEC
 4.850365799 -0.000316350 0.000227565
 -2.409720203 4.154171397 0.000561040
 -0.067608446 -0.078910881 5.334696125
PRIMCOORD
9 1 
Si      2.23676     -0.03547      5.33282        -0.812161     -0.708731     -1.567973
Si     -1.09937      1.83255      3.52714        -0.020521      0.590936      0.504947
Si      1.32455      2.21768      1.76285        -0.066979      1.651633      0.562704
O      1.38779      1.29003      0.48149         0.062123     -1.221567     -1.246472
O      0.37168      1.57000      2.89649         0.055142      0.015370      0.205169
O      3.26288      0.40587      4.12399        -0.755486     -0.276889      0.190592
O      0.68969      3.63868      1.23905         1.397254     -0.495861      1.684055
O      2.82102      2.48932      2.34581        -0.152806     -0.388522      0.562481
O     -1.08919      2.82354      4.84542         0.321985      0.850543     -0.891303
