
# total energy =    -71.69210981

CRYSTAL
PRIMVEC
 4.858895004 -0.000316906 0.000227965
 -2.414733831 4.165745245 0.000562683
 -0.060801848 -0.071815573 5.346279779
PRIMCOORD
9 1 
Si      2.27962     -0.05972      5.26321         0.226647     -0.890983      0.997824
Si     -1.11629      1.91162      3.60454         1.077926     -0.835816     -0.735605
Si      1.37317      2.16492      1.79733        -1.747810      0.080370     -1.457538
O      1.41752      1.20138      0.40199        -0.622795      2.011386      2.698583
O      0.38553      1.63184      3.00646         0.120541      0.111072     -0.691792
O      3.25930      0.45887      4.11594         0.349036     -0.162031     -0.396065
O      0.68165      3.50693      1.17268         0.898668      0.303083      0.649903
O      2.77648      2.51824      2.47490         0.004744     -0.151335     -0.954671
O     -1.16960      2.99572      4.76756        -0.273562     -0.469040     -0.116179
