
# total energy =    -71.95716727

CRYSTAL
PRIMVEC
 4.920676478 -0.000320936 0.000230864
 -2.455481653 4.257005115 0.000575580
 -0.010863462 -0.010665161 5.427075592
PRIMCOORD
9 1 
Si     -0.16086      4.22777      5.40458        -0.114688      0.317060     -0.711199
Si      3.75591      1.98583      3.58784         1.250515      0.733243     -0.297469
Si      1.32445      2.27069      1.83754        -0.383049     -0.312780     -1.227841
O      1.40509      1.07685      0.69784        -1.388654      1.480077      0.633782
O      0.39978      1.80964      3.10795         0.067707      0.049729     -0.793471
O      3.28136      0.65946      4.29498        -0.807265     -1.632733      0.174945
O      0.76607      3.66805      1.14587         1.494935     -1.894344      1.500697
O      2.86708      2.43506      2.30717         0.075669      0.401842      0.589287
O     -1.10969      3.09145      4.75818        -0.227686      0.833201      0.126338
