
# total energy =    -71.66880830

CRYSTAL
PRIMVEC
 4.924620511 -0.000321193 0.000231049
 -2.460626659 4.267526989 0.000577046
 -0.001499059 0.002456673 5.434506259
PRIMCOORD
9 1 
Si     -0.16606      4.21723      5.36501         1.597576      0.812193      0.694033
Si     -1.17196      2.03407      3.61987         1.407943     -1.009448     -0.194948
Si      1.37638      2.22200      1.86507        -1.767165      1.189260     -0.492167
O      1.49883      1.05975      0.74885        -1.187130      1.408112      0.151787
O      0.40827      1.82574      3.15305        -0.105845     -0.030675     -0.727475
O      3.33764      0.54722      4.22520        -0.403954      1.277472      0.188639
O      0.64528      3.57184      1.17139         1.579307     -1.942333      0.429092
O      2.84243      2.61574      2.41754        -0.261033     -0.506003     -0.418919
O     -1.20686      3.29782      4.62325        -0.857515     -1.177024      0.339096
