
# total energy =    -71.60209720

CRYSTAL
PRIMVEC
 4.921927383 -0.000321018 0.000230922
 -2.457492489 4.262820962 0.000576429
 -0.009001922 -0.003858558 5.430917326
PRIMCOORD
9 1 
Si      2.33497      0.01287      0.09100        -1.647079     -0.097175     -2.303613
Si     -1.10947      1.99093      3.60554        -1.036876      1.657259      0.415217
Si      1.33834      2.22380      1.77179         0.019199      0.082245     -0.198571
O      1.12584      0.88608      0.76434         1.058981      2.274945      0.794217
O      0.35677      1.89518      3.01848         1.355867     -0.420282     -0.207377
O      3.19823      0.71116      4.33090         0.075920     -0.233378      0.369804
O      0.94841      3.73950      1.13574         0.691517     -2.431398      1.135778
O      2.89018      2.34620      2.28591        -0.751208      0.061939     -0.048136
O     -1.10472      3.23829      4.68518         0.261796     -0.876096      0.048082
