
# total energy =    -71.63581530

CRYSTAL
PRIMVEC
 4.889888806 -0.000318928 0.000229419
 -2.435345027 4.207251388 0.000568451
 -0.037916396 -0.048145234 5.386149326
PRIMCOORD
9 1 
Si     -0.20191      4.15716      5.36849         1.473531     -0.035230     -0.004099
Si     -1.02029      1.93652      3.61795        -1.346266     -1.759408     -1.678990
Si      1.36746      2.23104      1.73816         0.284708     -0.136389      0.554098
O      1.23706      1.08041      0.49528        -0.811545      2.734486      2.493589
O      0.48409      1.72031      3.04989        -0.267658      0.034110     -0.621196
O      3.05230      0.62175      4.14785         1.166802     -0.779797      0.145313
O      0.78385      3.70803      1.23585         0.528952     -1.213048     -0.276905
O      2.88709      2.39008      2.39080        -0.867522      0.573375     -1.380415
O     -1.08563      2.94145      4.82636        -0.169334      0.571802      0.776964
