
# total energy =    -71.71492782

CRYSTAL
PRIMVEC
 4.921311409 -0.000320977 0.000230894
 -2.456438960 4.259282472 0.000575905
 -0.010203482 -0.007958732 5.428604438
PRIMCOORD
9 1 
Si     -0.15661      4.22175      0.02760         0.756861      1.396375      1.003562
Si     -1.15298      2.00184      3.52188         0.231399     -0.911818      3.189473
Si      1.31930      2.26102      1.77699        -0.134355      0.273457      2.100579
O      1.30776      1.03220      0.80658        -0.009695     -1.622450     -2.018558
O      0.37560      1.88249      3.08377         1.102600     -0.400458     -1.022265
O      3.23052      0.63992      4.33988         0.735790      1.420596     -1.151872
O      0.89988      3.70624      1.22654        -1.096578      0.120955     -1.308809
O      2.85573      2.36478      2.29296        -0.324509      0.775454     -0.419171
O     -1.07085      3.15994      4.70534        -1.224465     -1.023160     -0.322833
