
# total energy =    -71.79478069

CRYSTAL
PRIMVEC
 4.924302120 -0.000321172 0.000231034
 -2.460290025 4.267710389 0.000577092
 -0.002390318 0.002476824 5.434439867
PRIMCOORD
9 1 
Si     -0.17033      4.24455      5.37275         1.371814     -1.009284     -0.716032
Si     -1.15241      2.04390      3.63159         0.961834     -0.586675     -1.245995
Si      1.34114      2.23046      1.87188         0.046082      0.050419     -1.498232
O      1.50676      1.04687      0.71698        -2.285611      3.083494      1.991524
O      0.44274      1.80400      3.16004        -1.063402      0.090256     -0.204852
O      3.31864      0.63227      4.27092        -0.398523     -0.199892      0.136598
O      0.66755      3.51748      1.10511         1.236285     -1.269401      0.710591
O      2.84702      2.57610      2.38810        -0.005152     -0.503154      0.020577
O     -1.22543      3.26133      4.65126         0.171048      0.358993      0.838603
