
# total energy =    -71.94459383

CRYSTAL
PRIMVEC
 4.924138789 -0.000321162 0.000231026
 -2.460092857 4.267748422 0.000577107
 -0.002872690 0.002325920 5.434378090
PRIMCOORD
9 1 
Si     -0.16027      4.25175      5.37154         0.107242     -0.426578      0.605009
Si     -1.13394      2.04293      3.62909         0.414790      0.167151     -1.538649
Si      1.32095      2.23645      1.86357         1.289105     -0.696333     -0.375768
O      1.47865      1.08418      0.72794        -0.986612      0.410381      0.385781
O      0.44690      1.79413      3.15885        -1.120032      0.154235     -0.012695
O      3.30351      0.67589      4.29522        -0.346160     -0.959973      0.160967
O      0.69897      3.46832      1.08349        -0.133050      0.976167     -0.445110
O      2.84849      2.54897      2.37225         0.165306     -0.459930      0.413492
O     -1.23519      3.24379      4.67555         0.660787      0.842999      0.806795
