
# total energy =    -71.72130489

CRYSTAL
PRIMVEC
 4.857993230 -0.000316848 0.000227923
 -2.414179379 4.164544956 0.000562514
 -0.061524271 -0.072606856 5.345047572
PRIMCOORD
9 1 
Si      2.27994     -0.04978      5.25681        -0.164119     -1.206334      2.070806
Si     -1.12291      1.89705      3.59553         1.432759     -0.027489     -0.265288
Si      1.37244      2.17332      1.78907        -1.549642     -0.342437     -0.815961
O      1.40880      1.21770      0.40741        -0.185053      1.294194      2.178846
O      0.38079      1.62406      2.99949         0.232489      0.103285     -0.685681
O      3.25595      0.45677      4.12322         0.552647     -0.171730     -0.689930
O      0.68697      3.49485      1.18831         0.248329      1.445796     -0.186372
O      2.78515      2.51852      2.46574        -0.191479     -0.201326     -0.897805
O     -1.15823      2.98380      4.78812        -0.368927     -0.874283     -0.717980
