
# total energy =    -71.71560089

CRYSTAL
PRIMVEC
 4.857536323 -0.000316818 0.000227901
 -2.413901447 4.163937036 0.000562429
 -0.061890789 -0.073003655 5.344426654
PRIMCOORD
9 1 
Si      2.28004     -0.04541      5.25458        -0.429613     -1.327573      2.509651
Si     -1.12551      1.88967      3.59086         1.582512      0.347314     -0.088261
Si      1.37125      2.17737      1.78447        -1.383670     -0.560204     -0.437236
O      1.40420      1.22715      0.41218         0.050359      0.839931      1.865790
O      0.37861      1.62027      2.99537         0.277728      0.109285     -0.697662
O      3.25474      0.45557      4.12628         0.632490     -0.192993     -0.813304
O      0.68995      3.48994      1.19609        -0.066670      2.022592     -0.530428
O      2.78934      2.51849      2.46032        -0.277835     -0.232458     -0.870305
O     -1.15288      2.97710      4.79784        -0.389409     -0.988439     -0.945600
