
# total energy =    -71.74497621

CRYSTAL
PRIMVEC
 4.891537808 -0.000319035 0.000229497
 -2.436343602 4.208900524 0.000568672
 -0.036565643 -0.047527631 5.387900945
PRIMCOORD
9 1 
Si     -0.18155      4.14903      5.36296         0.148961      0.311662     -0.281075
Si     -1.03669      1.93223      3.62988        -0.889939     -1.589381     -3.515176
Si      1.36323      2.22968      1.77602         0.334687      0.356053     -0.770026
O      1.28449      1.12166      0.51321        -0.415308      1.516989      1.575010
O      0.47560      1.71854      3.03386        -1.131930     -0.133585      0.337032
O      3.08635      0.61541      4.12782         0.297375     -1.791723      0.735092
O      0.76805      3.70005      1.22225         0.819547     -1.422406      0.135858
O      2.86625      2.41837      2.37687         0.268527      0.310580     -0.281740
O     -1.11750      2.92633      4.80816         0.586576      2.447442      2.084228
