
# total energy =    -71.68190521

CRYSTAL
PRIMVEC
 4.842714724 -0.000315851 0.000227206
 -2.405081458 4.143922042 0.000559595
 -0.073704439 -0.085254735 5.324093958
PRIMCOORD
9 1 
Si     -0.17055      4.13203      0.02623         2.257869      1.562992      0.025121
Si     -1.06982      1.80136      3.49229        -1.298223     -1.831064      0.105302
Si      1.28860      2.32408      1.76709         1.265043     -1.573795     -0.649793
O      1.35604      1.26598      0.46336        -0.537115      0.638847      0.331617
O      0.36735      1.51708      2.82196         0.059355      0.266514      0.455732
O      3.20971      0.33982      4.11689        -0.159210      0.918074      0.112818
O      0.79219      3.81264      1.39579        -1.065843     -0.478394     -1.672076
O      2.83190      2.41407      2.29229         0.017331      0.148692      0.979451
O     -1.00071      2.75586      4.79323        -0.528661      0.353401      0.295037
