
# total energy =    -71.77613961

CRYSTAL
PRIMVEC
 4.906311193 -0.000319999 0.000230190
 -2.445000050 4.223592880 0.000570650
 -0.026502053 -0.043581749 5.403367661
PRIMCOORD
9 1 
Si     -0.12984      4.10876      5.32497         0.621859      2.720245      2.574464
Si      3.73369      1.88395      3.61766        -0.309312      1.125518     -0.324716
Si      1.31676      2.27676      1.82813         0.908864     -0.549661      0.350172
O      1.60500      1.23868      0.61866        -0.567768     -0.705457     -0.633291
O      0.26411      1.66651      2.94549         1.407409      0.197506     -0.771562
O      3.31196      0.43410      4.18696         0.114510      0.468267     -0.589491
O      0.80141      3.64433      1.16735        -0.033798     -0.179408      0.072515
O      2.77275      2.62747      2.53011        -1.057524     -0.896552     -0.200140
O     -1.13911      3.08382      4.75250        -1.087861     -2.163805     -0.477551
