
# total energy =    -71.74487396

CRYSTAL
PRIMVEC
 4.922214748 -0.000321036 0.000230936
 -2.457694962 4.264528033 0.000576697
 -0.007787176 -0.001729108 5.431970269
PRIMCOORD
9 1 
Si      2.30526      0.02625      0.02919        -0.267690      0.164164      2.121594
Si     -1.11801      2.04333      3.64707         0.131931     -0.044436     -0.663837
Si      1.36891      2.19946      1.75815        -0.781917      0.975457      1.793248
O      1.11089      0.96352      0.76756         2.017173     -0.747498     -1.062172
O      0.36274      1.84530      3.03639         0.888185      0.075092     -0.003638
O      3.18740      0.72237      4.36000         1.022841      1.155920     -0.878746
O      0.94992      3.63221      1.08737        -0.898974     -0.040739     -0.306696
O      2.90996      2.34405      2.30928        -0.953512      0.172221     -0.116647
O     -1.09286      3.25533      4.72626        -1.156062     -1.724204     -0.889352
