
# total energy =    -71.65985753

CRYSTAL
PRIMVEC
 4.914032480 -0.000320503 0.000230552
 -2.449119831 4.232989783 0.000571981
 -0.024230976 -0.039751903 5.411696405
PRIMCOORD
9 1 
Si      2.38212      0.04146      0.00873         0.902891     -0.236846      0.033348
Si     -1.08733      1.99393      3.62273        -1.402689     -1.762898      2.223625
Si      1.31664      2.22964      1.72491        -0.250195     -0.257680      1.328829
O      1.30090      1.13717      0.46212         0.247281      1.651516      1.834364
O      0.19356      1.63630      2.80223         2.318442      0.215791     -1.395511
O      3.27063      0.52602      4.22844         1.056938      1.274697     -0.650186
O      0.87622      3.69975      1.20937         0.085052      0.130894      0.224216
O      2.67075      2.46142      2.65264        -1.805447      0.630997     -2.198774
O     -0.92603      2.98726      4.91708        -1.121097     -1.641642     -1.388807
