
# total energy =    -71.74660422

CRYSTAL
PRIMVEC
 4.925416146 -0.000321245 0.000231086
 -2.461760413 4.267045813 0.000576915
 -0.000671753 0.000637866 5.434654411
PRIMCOORD
9 1 
Si     -0.09729      4.23827      0.01899        -1.932324     -0.007347     -2.959446
Si     -1.13067      1.97051      3.58907        -0.607989      1.167398      1.389957
Si      1.33232      2.28814      1.87569         0.954876     -1.040983     -3.191411
O      1.40790      1.07920      0.64459        -0.789842      2.698965      1.851989
O      0.36359      1.81907      3.01579        -0.701923     -0.925542      0.992791
O      3.29894      0.54535      4.20209        -0.061940      0.201159      0.505810
O      0.72125      3.63984      1.20629         1.644614     -1.127374      1.192290
O      2.80628      2.58257      2.44163         0.242918     -0.464192     -0.172104
O     -1.18591      3.19789      4.71051         1.238928     -0.537502      0.382609
