
# total energy =    -71.77443138

CRYSTAL
PRIMVEC
 4.919513663 -0.000320860 0.000230809
 -2.454040979 4.252739098 0.000574955
 -0.012172351 -0.015265446 5.424282122
PRIMCOORD
9 1 
Si      2.28412      0.00536      5.36263        -0.018059     -0.059382      1.573231
Si     -1.08518      2.00392      3.63574        -1.303451     -0.654243      1.036380
Si      1.35198      2.24625      1.83996         0.578143      0.257355      0.432472
O      1.40829      1.25541      0.56497         0.732443     -1.505308     -0.106863
O      0.39797      1.69057      3.08610         0.873381      0.394278     -0.761910
O      3.28542      0.49947      4.19999         0.502540      1.650466     -0.650715
O      0.67068      3.49726      1.11967         0.068782      1.770888      0.425568
O      2.88017      2.57710      2.43722        -1.230331     -0.604838     -0.290091
O     -1.19448      3.12330      4.86551        -0.214592     -1.255188     -1.653543
