
# total energy =    -71.62657490

CRYSTAL
PRIMVEC
 4.919059101 -0.000320830 0.000230788
 -2.453277928 4.249775561 0.000574510
 -0.013211259 -0.018901134 5.422539264
PRIMCOORD
9 1 
Si      2.26849      0.00227      5.40818         1.092374     -0.926691     -2.243842
Si     -1.07452      1.99083      3.65903        -0.532709     -1.288340     -0.408340
Si      1.40993      2.23207      1.82785        -1.790041      1.092815      0.018886
O      1.44623      1.27949      0.49708        -0.055471      0.187350      0.985607
O      0.41539      1.64592      3.02912        -0.366657      0.698505     -0.416127
O      3.29620      0.47142      4.10780        -0.858424      0.684707      1.654570
O      0.63461      3.53970      1.15460         1.203260     -0.027607      1.222977
O      2.80332      2.60839      2.53747         0.372280     -0.437066     -0.722469
O     -1.23582      3.11476      4.83382         0.927218      0.007760     -0.117100
