
# total energy =    -71.60172598

CRYSTAL
PRIMVEC
 4.865544421 -0.000317340 0.000228277
 -2.419045298 4.174690134 0.000563932
 -0.055789779 -0.066198858 5.355407319
PRIMCOORD
9 1 
Si     -0.13241      4.05904      5.28948         0.481640      2.240249      0.896125
Si     -1.06204      1.92987      3.59083        -2.394796     -0.555623     -0.758455
Si      1.32067      2.13875      1.78451         1.196008      2.056200      1.626102
O      1.43041      1.21249      0.55072         0.699256     -2.689581     -2.074122
O      0.40597      1.69259      3.02536        -0.175839     -0.475716      0.186367
O      3.27490      0.45830      4.08659        -0.435228     -0.029782      1.243433
O      0.76739      3.52470      1.18759        -0.709093      1.124555     -0.798697
O      2.74313      2.49638      2.47257         0.874268     -0.535682     -0.427336
O     -1.26185      3.11731      4.68420         0.465094     -1.180203      0.160345
