
# total energy =    -71.77780706

CRYSTAL
PRIMVEC
 4.914960220 -0.000320563 0.000230596
 -2.449555676 4.234508066 0.000572207
 -0.023917511 -0.038887296 5.412892188
PRIMCOORD
9 1 
Si      2.39766      0.06014      0.00457        -0.317623     -1.151139      0.921118
Si     -1.11042      1.97182      3.67740        -0.537189     -1.148969     -2.805809
Si      1.27986      2.24644      1.74909         0.656226     -0.454021     -0.268003
O      1.26956      1.12832      0.45785         0.767023      1.350096      1.485810
O      0.19823      1.62669      2.75643        -0.495236      0.195523      0.960585
O      3.29960      0.54211      4.23963         0.397835      0.053652     -0.378551
O      0.90101      3.72985      1.22126        -0.526191      0.376767     -0.465645
O      2.67634      2.47702      2.56958         0.207467     -0.165935      0.143072
O     -0.88355      2.93134      4.90416        -0.188021      0.945357      0.430154
