
# total energy =    -71.80066598

CRYSTAL
PRIMVEC
 4.908528622 -0.000320144 0.000230294
 -2.446202320 4.225961322 0.000570978
 -0.025834119 -0.043040625 5.405655356
PRIMCOORD
9 1 
Si     -0.10391      4.14677      5.34523        -0.658532     -0.558870      1.006239
Si      3.77120      1.89953      3.58842        -0.816080      0.538925      2.266190
Si      1.32546      2.26809      1.80648         0.968410     -1.248329     -0.067898
O      1.57015      1.18797      0.55777        -1.537868      2.020594      1.763724
O      0.25702      1.67574      2.91557         2.158768     -0.130149     -1.396684
O      3.27635      0.49211      4.21216         1.139568      0.240135     -1.395387
O      0.81027      3.64655      1.18275         0.215298     -0.137041      0.093776
O      2.72342      2.57381      2.62804        -2.115007      0.056413     -2.343675
O     -1.14578      3.05911      4.77634         0.658695     -0.770999      0.075560
