
# total energy =    -71.75747909

CRYSTAL
PRIMVEC
 4.918826088 -0.000320815 0.000230777
 -2.452397947 4.242186280 0.000573320
 -0.018619936 -0.030781469 5.418610980
PRIMCOORD
9 1 
Si     -0.11257      4.22109      0.04930         0.578481      0.303069     -1.399731
Si      3.73289      1.89576      3.57780         1.237517      0.305101     -1.467279
Si      1.28486      2.31811      1.79827         0.062383     -0.423849     -0.905967
O      1.51975      1.24823      0.60273        -0.926112     -0.272728     -0.991048
O      0.28709      1.66512      2.82218        -2.339956     -0.487422      1.598838
O      3.30512      0.51732      4.24045        -0.856986     -1.278038      0.807215
O      0.83607      3.79208      1.31468        -0.606836     -0.277694     -0.971811
O      2.69767      2.49278      2.45761         2.465767      0.225014      1.707300
O     -0.96338      2.94131      4.77113         0.360475      1.887370      1.632699
