
# total energy =    -71.92464264

CRYSTAL
PRIMVEC
 4.896235892 -0.000319342 0.000229717
 -2.439415276 4.213303048 0.000569242
 -0.032562573 -0.046341497 5.392627085
PRIMCOORD
9 1 
Si     -0.14284      4.15556      5.35775        -1.151842      0.743438      1.486765
Si     -1.12170      1.89485      3.54763        -0.646851      1.119942      2.086219
Si      1.35666      2.25172      1.84046        -0.257856      0.328597     -0.051131
O      1.41958      1.25729      0.61007         0.789025     -2.619298     -1.688056
O      0.37178      1.69820      3.02626         0.994550     -0.103001     -0.353482
O      3.19773      0.47135      4.12259         0.400686      0.574740     -0.279545
O      0.77761      3.60147      1.19648        -0.203357      1.251136     -0.177073
O      2.86389      2.51188      2.35841         0.060676     -0.064100      0.656365
O     -1.16330      3.01178      4.84637         0.016749     -1.250690     -1.646420
