
# total energy =    -71.72270055

CRYSTAL
PRIMVEC
 4.913266514 -0.000320453 0.000230516
 -2.448692506 4.231867046 0.000571819
 -0.024362736 -0.040319739 5.410815475
PRIMCOORD
9 1 
Si      2.37853      0.02450      0.01299         0.805392      0.548780     -0.744745
Si     -1.08399      1.99224      3.59976        -1.277598     -1.583100      2.615082
Si      1.34129      2.21513      1.71962        -0.856267      0.853047      2.075664
O      1.32912      1.17160      0.49642         0.669040      0.040898      0.359577
O      0.22458      1.64728      2.81570         1.681214      0.161938     -1.175350
O      3.26749      0.53487      4.20950         0.573025      0.691809      0.099369
O      0.85873      3.68134      1.20309         0.344900      0.053386      0.401762
O      2.63985      2.45977      2.67812        -1.080804      0.805005     -2.206803
O     -0.97389      3.00385      4.90557        -0.881816     -1.553783     -1.454433
