
# total energy =    -71.66671136

CRYSTAL
PRIMVEC
 4.918667453 -0.000320805 0.000230770
 -2.452313098 4.241578910 0.000573225
 -0.019105533 -0.031594623 5.418213902
PRIMCOORD
9 1 
Si     -0.11523      4.23628      0.06021         1.100110     -0.348379     -1.418810
Si      3.72082      1.90673      3.57057         1.498261     -0.399311     -1.053720
Si      1.27384      2.32004      1.79615         0.379503     -0.660452     -1.002488
O      1.50316      1.24007      0.60561        -0.932111     -0.119883     -0.917242
O      0.28070      1.66235      2.80270        -2.813671     -0.595058      2.007427
O      3.31844      0.50169      4.24987        -0.787612     -0.504244      0.470008
O      0.86418      3.78663      1.31813        -1.159431      0.476037     -1.414245
O      2.69409      2.48509      2.44291         2.539938      0.223882      1.831365
O     -0.93320      2.92418      4.78330         0.184929      1.911017      1.502467
