
# total energy =    -71.55383320

CRYSTAL
PRIMVEC
 4.867086815 -0.000317441 0.000228350
 -2.420137169 4.176761181 0.000564217
 -0.054694798 -0.065074412 5.357454952
PRIMCOORD
9 1 
Si     -0.12822      4.07341      5.29245         0.185457      1.343420      1.538610
Si     -1.06998      1.91213      3.56556        -2.447267      0.455705      0.505484
Si      1.31156      2.15545      1.78124         1.702458      1.083954      2.309652
O      1.43608      1.19584      0.58342         0.636866     -2.748101     -2.336390
O      0.40330      1.70043      3.03030         0.134451     -0.530636      0.071969
O      3.26806      0.45491      4.10458        -0.024199      0.270399      0.782012
O      0.80144      3.52326      1.20740        -1.621223      2.486947     -1.946579
O      2.75370      2.48072      2.45730         0.630093     -0.480615     -0.484779
O     -1.27728      3.14295      4.68447         0.808040     -1.913980     -0.424758
