
# total energy =    -71.70515061

CRYSTAL
PRIMVEC
 4.876178443 -0.000318034 0.000228776
 -2.426530628 4.189677499 0.000566013
 -0.047861962 -0.057360257 5.369668337
PRIMCOORD
9 1 
Si     -0.19482      4.11210      5.35052         0.830553      2.283717      2.208880
Si      3.70815      1.89448      3.56056         1.397201     -0.507936     -1.912380
Si      1.32410      2.27255      1.81088         0.498254     -0.711426      0.929086
O      1.29315      1.11699      0.72395         0.735980     -2.274259     -2.622983
O      0.36878      1.70545      3.01409         0.496711      0.324622      0.105569
O      3.27052      0.49752      4.21923        -0.816561     -0.030870      0.080097
O      0.90191      3.66990      1.17805        -1.243517      0.696196     -0.879012
O      2.92050      2.37469      2.20469        -0.655290      0.145572      1.423744
O     -1.08780      3.01293      4.67861        -1.272209      0.090325      0.674721
