
# total energy =    -71.97046310

CRYSTAL
PRIMVEC
 4.919061786 -0.000320831 0.000230788
 -2.452527638 4.243371300 0.000573506
 -0.017688496 -0.029088116 5.419351581
PRIMCOORD
9 1 
Si     -0.10371      4.19562      0.01503        -0.513492      1.578910     -0.829861
Si      3.76687      1.87853      3.58084        -0.005816      1.290758      0.293543
Si      1.30729      2.31063      1.79593         0.024245     -0.239357      0.217709
O      1.53781      1.26040      0.58221        -0.922250     -0.120639     -0.490256
O      0.26988      1.66431      2.88115         0.750535     -0.026865     -0.545351
O      3.26584      0.52705      4.23411        -0.148231     -1.217220      0.381690
O      0.77417      3.79393      1.29605         0.802233     -1.732690      0.415589
O      2.73833      2.51197      2.51014        -0.042697      0.293920     -0.037532
O     -1.01851      3.00230      4.77086         0.059920      0.199670      0.607363
