
# total energy =    -71.91972638

CRYSTAL
PRIMVEC
 4.920535836 -0.000320927 0.000230857
 -2.455300819 4.256607365 0.000575524
 -0.011024240 -0.011141782 5.426795168
PRIMCOORD
9 1 
Si     -0.15867      4.23501      5.39532        -0.269068     -0.169998     -0.551421
Si      3.75848      1.98330      3.60641         1.398134      1.105159     -1.630334
Si      1.32265      2.27224      1.84675        -0.049945     -0.452991     -1.654403
O      1.41257      1.08972      0.67865        -1.379894      1.548158      0.781902
O      0.41087      1.79728      3.10163        -0.549350      0.025374     -0.288444
O      3.28789      0.65952      4.28371        -1.066282     -2.319051      0.519564
O      0.75249      3.64704      1.14101         1.298785     -1.466693      1.243872
O      2.86515      2.45257      2.30880         0.372917      0.175318      0.992470
O     -1.12354      3.07783      4.76332         0.185988      1.556782      0.594345
