
# total energy =    -71.61955740

CRYSTAL
PRIMVEC
 4.859779900 -0.000316964 0.000228007
 -2.415285040 4.166925515 0.000562849
 -0.060096820 -0.071032621 5.347497387
PRIMCOORD
9 1 
Si     -0.13571      4.09605      5.27152         0.389620     -0.380579     -0.104700
Si     -1.10821      1.92503      3.61252         0.664607     -1.661198     -1.340572
Si      1.37151      2.15661      1.80359        -1.740211      0.457444     -1.875298
O      1.42475      1.18987      0.40306        -0.916410      2.408841      2.910828
O      0.39053      1.63986      3.01173        -0.035534      0.091764     -0.628024
O      3.26346      0.46056      4.10767         0.092372     -0.173088     -0.036962
O      0.67847      3.51975      1.15863         1.489395     -0.690750      1.472154
O      2.76781      2.51757      2.48175         0.220621     -0.137338     -0.962355
O     -1.18166      3.00651      4.74672        -0.141756      0.087948      0.571536
