
# total energy =    -71.85218650

CRYSTAL
PRIMVEC
 4.924260618 -0.000321170 0.000231032
 -2.460242219 4.267724891 0.000577096
 -0.002511176 0.002447296 5.434426209
PRIMCOORD
9 1 
Si     -0.16827      4.24679      5.37257         1.088803     -0.920242     -0.456465
Si     -1.14819      2.04381      3.63170         0.849813     -0.410264     -1.367983
Si      1.33580      2.23210      1.87040         0.358084     -0.127640     -1.330801
O      1.50137      1.05430      0.71840        -2.028152      2.541508      1.718812
O      0.44480      1.80143      3.15985        -1.115087      0.105044     -0.148789
O      3.31521      0.64369      4.27687        -0.395262     -0.426147      0.129122
O      0.67477      3.50557      1.09945         0.929484     -0.786271      0.486472
O      2.84731      2.56978      2.38397         0.045886     -0.504757      0.118103
O     -1.22824      3.25639      4.65655         0.319738      0.538075      0.866199
