
# total energy =    -71.74350572

CRYSTAL
PRIMVEC
 4.912211449 -0.000320384 0.000230467
 -2.448065423 4.230466029 0.000571621
 -0.024573990 -0.041024417 5.409695258
PRIMCOORD
9 1 
Si      2.38210      0.00966      0.00956        -0.115536      0.439541     -1.156907
Si     -1.09352      1.97293      3.59829        -0.488584     -0.832439      0.137903
Si      1.36060      2.20817      1.73581        -1.668153      1.947846      1.447981
O      1.37674      1.21042      0.54153         1.063193     -2.075082     -1.782152
O      0.28857      1.66333      2.81246        -1.608600     -0.095720      0.817545
O      3.27392      0.55686      4.18937        -0.186337     -0.753237      0.916555
O      0.84382      3.66103      1.20263         0.138598      0.347195     -0.007208
O      2.58829      2.47316      2.66934         2.427554      0.646204     -0.154720
O     -1.04613      2.99710      4.86574         0.445376      0.341046     -0.223279
