
# total energy =    -71.68945762

CRYSTAL
PRIMVEC
 4.882612276 -0.000318453 0.000229078
 -2.430951020 4.198604417 0.000567254
 -0.043497840 -0.052387443 5.377860654
PRIMCOORD
9 1 
Si      2.27233      0.07120      0.08078        -1.116866     -1.596466     -2.469714
Si     -1.06591      1.87690      3.53398         0.194808      1.118202     -0.063878
Si      1.36902      2.24103      1.75388        -1.164137      0.553744     -0.325767
O      1.10031      1.08746      0.62735         1.574179     -0.414013     -0.485485
O      0.47309      1.74097      2.99247        -1.123067     -0.222386      0.749193
O      3.15162      0.59200      4.21107        -0.638306     -1.158449      0.407243
O      0.86405      3.69490      1.17748         0.309922     -0.398722      0.786137
O      2.88563      2.35971      2.22751         1.418932     -0.001179      1.012376
O     -1.05137      2.88824      4.80522         0.542159      2.133654      0.400925
