
# total energy =    -71.91723013

CRYSTAL
PRIMVEC
 4.919097041 -0.000320833 0.000230790
 -2.452619607 4.246207845 0.000573962
 -0.015629809 -0.024657675 5.420782139
PRIMCOORD
9 1 
Si     -0.13149      4.18712      5.36363        -0.871303      0.621361      2.600091
Si     -1.10149      1.89799      3.63295        -0.317756      1.171497     -0.241750
Si      1.36551      2.28213      1.80670         0.118555     -0.344297      0.280009
O      1.51050      1.28441      0.51766        -0.101026     -0.353400      0.301875
O      0.34806      1.65812      2.94339        -0.219589     -0.094433      0.147946
O      3.21927      0.50361      4.19236         1.466619      0.237356     -0.874187
O      0.69913      3.66603      1.28371         0.018352      0.335089     -1.060168
O      2.77511      2.57743      2.58196        -0.543575     -0.421582     -1.063355
O     -1.15732      3.09825      4.78534         0.459634     -1.158800     -0.092770
