
# total energy =    -71.98877409

CRYSTAL
PRIMVEC
 4.893554961 -0.000319167 0.000229591
 -2.437586102 4.210815859 0.000568924
 -0.034852681 -0.046956821 5.389954162
PRIMCOORD
9 1 
Si     -0.15606      4.14340      5.35445        -1.137215      1.110172      0.669324
Si     -1.06657      1.91180      3.60758        -0.763656      0.558238     -2.015270
Si      1.36132      2.23233      1.81275        -0.087706      0.892705     -1.344283
O      1.33484      1.19719      0.56287         0.530485     -1.084561     -0.454522
O      0.44365      1.71347      3.02130        -1.157723     -0.277890      0.840172
O      3.13348      0.57332      4.11759        -0.060462     -1.649908      0.694124
O      0.76468      3.66397      1.20853         0.619831     -0.635665      0.245318
O      2.84792      2.45817      2.35586         1.390744      0.032783      0.988932
O     -1.14485      2.95108      4.82205         0.633526      1.085316      0.365145
