
# total energy =    -71.70488462

CRYSTAL
PRIMVEC
 4.880442764 -0.000318312 0.000228976
 -2.429622074 4.195554475 0.000566822
 -0.045167110 -0.054017426 5.375072325
PRIMCOORD
9 1 
Si      2.24790      0.05618      0.07006         1.205210     -2.110609     -2.502367
Si     -1.09030      1.88905      3.51860        -0.867687     -0.195443      1.625747
Si      1.33312      2.26603      1.80680         0.944223     -0.310594     -2.211936
O      1.17020      1.04071      0.62935        -0.498272      2.480453      1.604160
O      0.41078      1.74138      2.98599         0.541926     -0.500191      0.509007
O      3.19740      0.53367      4.23894        -0.077899      0.635052     -0.747101
O      0.88511      3.69959      1.15805         0.223670     -0.921310      1.108568
O      2.94548      2.36267      2.19418        -1.282786      0.036229      0.555191
O     -1.03878      2.92571      4.77002        -0.180082      0.899349      0.011428
