
# total energy =    -71.65241392

CRYSTAL
PRIMVEC
 4.911244047 -0.000320321 0.000230421
 -2.447537853 4.229233468 0.000571446
 -0.024868038 -0.041663287 5.408649640
PRIMCOORD
9 1 
Si      2.35980     -0.04034      5.40490        -0.613968     -0.149167     -0.973572
Si     -1.10663      1.94864      3.60043         0.090505      0.112128     -1.104215
Si      1.36164      2.21915      1.76242        -1.742163      1.294638     -0.531243
O      1.43284      1.21291      0.55437         0.619035     -1.532655     -1.337387
O      0.31993      1.67518      2.82027        -3.168664     -0.500165      1.833169
O      3.27718      0.56432      4.18620        -0.431968     -1.735670      0.996446
O      0.83393      3.64938      1.20272        -0.052693      0.540591     -0.382271
O      2.58020      2.49525      2.65622         3.943719      0.554756      0.799752
O     -1.10071      2.99440      4.82726         1.368972      1.420635      0.706915
