
# total energy =    -71.69994238

CRYSTAL
PRIMVEC
 4.879889697 -0.000318276 0.000228950
 -2.429241121 4.194792955 0.000566716
 -0.045545168 -0.054427443 5.374367752
PRIMCOORD
9 1 
Si      2.24372      0.04524      0.05801         1.644638     -1.578767     -1.742837
Si     -1.09852      1.89250      3.51890        -0.928670     -0.423591      1.813513
Si      1.32568      2.27206      1.81333         1.257208     -0.649194     -2.122067
O      1.18758      1.04050      0.63701        -0.609546      2.520803      1.621761
O      0.39553      1.73869      2.98833         1.010691     -0.467373      0.320499
O      3.20741      0.51999      4.24315         0.035874      1.011830     -0.933663
O      0.89265      3.69512      1.16022        -0.087969     -0.652650      0.802706
O      2.95687      2.36347      2.18998        -1.756938      0.071093      0.506960
O     -1.03510      2.94330      4.76245        -0.591474      0.206197     -0.272995
