
# total energy =    -71.98945939

CRYSTAL
PRIMVEC
 4.925469806 -0.000321249 0.000231089
 -2.461842170 4.267029755 0.000576908
 -0.000656524 0.000529789 5.434674973
PRIMCOORD
9 1 
Si     -0.11420      4.25137      0.01815        -1.245579     -0.169804     -2.383502
Si     -1.12988      1.97799      3.60097        -0.375787      0.753867      1.057120
Si      1.32982      2.28380      1.85526         0.628467     -0.666248     -2.556420
O      1.39496      1.10143      0.62742        -0.780534      2.345413      1.699650
O      0.35894      1.79146      3.00396        -0.585779     -0.598517      0.705926
O      3.28379      0.56546      4.22221         0.002441      0.122483      0.260910
O      0.74937      3.66134      1.19043         1.424762     -1.171299      1.246519
O      2.80675      2.55434      2.44059         0.124020     -0.240073     -0.142861
O     -1.14896      3.16048      4.75302         0.769930     -0.356314      0.102705
