
# total energy =    -71.95463577

CRYSTAL
PRIMVEC
 4.850855433 -0.000316382 0.000227588
 -2.410001585 4.154852438 0.000561137
 -0.067216995 -0.078510131 5.335374140
PRIMCOORD
9 1 
Si      2.24254     -0.03345      5.32427        -0.913911     -0.755103     -0.927941
Si     -1.10366      1.83274      3.53063         0.213643      0.895849      0.486944
Si      1.32840      2.21386      1.75991        -0.155894      1.567908      1.047170
O      1.38532      1.29489      0.48294         0.327674     -1.694026     -1.523922
O      0.37076      1.57304      2.90411         0.156049      0.040494      0.063823
O      3.26320      0.41161      4.12507        -0.703009     -0.400823      0.157204
O      0.69040      3.61913      1.23753         1.053315      0.099762      1.258952
O      2.82057      2.49327      2.35329        -0.215191     -0.433964      0.460987
O     -1.09358      2.83407      4.84801         0.278332      0.677974     -1.025962
