
# total energy =    -71.57405644

CRYSTAL
PRIMVEC
 4.921781696 -0.000321008 0.000230916
 -2.457333856 4.261999945 0.000576304
 -0.009497855 -0.004880588 5.430378280
PRIMCOORD
9 1 
Si      2.33092      0.00581      0.10381        -0.787075     -0.556297     -2.937996
Si     -1.11730      1.98274      3.59016        -0.333672      1.531347     -0.638208
Si      1.32096      2.23920      1.78033         0.922219     -0.254587     -1.106406
O      1.16248      0.88811      0.77435         0.368103      2.360598      0.753211
O      0.38668      1.91247      3.00344        -0.805639     -0.790879      1.247625
O      3.21157      0.70924      4.31667        -0.481952     -1.152815      1.070443
O      0.95761      3.74549      1.18121        -0.156725     -1.597806     -0.045607
O      2.86058      2.34922      2.27180         0.467949     -0.020001      0.511418
O     -1.11193      3.20288      4.65921         0.851291      0.519309      1.130148
