
# total energy =    -72.02128623

CRYSTAL
PRIMVEC
 4.894568395 -0.000319233 0.000229639
 -2.438251492 4.211753676 0.000569045
 -0.033984345 -0.046716685 5.390962097
PRIMCOORD
9 1 
Si     -0.14773      4.14511      5.35239        -1.317956      1.166879      1.225202
Si     -1.08504      1.90225      3.58543        -0.853147      1.259205     -0.476391
Si      1.36033      2.23736      1.82509        -0.286507      0.946311     -0.889432
O      1.36305      1.22981      0.58695         0.779740     -2.141800     -1.332907
O      0.41793      1.70881      3.02136        -0.476906     -0.257004      0.516956
O      3.15685      0.53820      4.11833         0.115202     -0.902423      0.341760
O      0.76842      3.63943      1.20366         0.325960      0.076085      0.125424
O      2.84870      2.47869      2.35164         1.324347     -0.079948      1.207417
O     -1.15328      2.97491      4.83506         0.394305     -0.062290     -0.724521
