
# total energy =    -71.58249107

CRYSTAL
PRIMVEC
 4.888268188 -0.000318822 0.000229343
 -2.434335139 4.205552817 0.000568223
 -0.039173502 -0.048884708 5.384391101
PRIMCOORD
9 1 
Si      2.22396     -0.03982      5.37409         1.605957      0.719298      1.146903
Si     -1.01511      1.92627      3.59180        -1.438388     -0.919139      0.540890
Si      1.37404      2.23136      1.70498         0.043023     -0.346262      1.777660
O      1.17918      1.07767      0.51283         0.115184      1.862313      1.824252
O      0.48809      1.72235      3.05735         0.218611      0.096242     -1.051693
O      3.03569      0.61620      4.17000         1.812513      0.222357     -0.499818
O      0.80748      3.69845      1.24517         0.028674     -0.359280     -0.746060
O      2.89579      2.37013      2.38488        -1.238573      0.669264     -1.733477
O     -1.05657      2.96420      4.85537        -1.143801     -1.947445     -1.265264
