
# total energy =    -71.69266607

CRYSTAL
PRIMVEC
 4.923484338 -0.000321119 0.000230996
 -2.459200750 4.267067854 0.000577038
 -0.004983391 0.001217229 5.433717829
PRIMCOORD
9 1 
Si      2.29351      0.01921      0.00293        -0.330628      0.108399     -1.559788
Si     -1.08910      2.07376      3.59280        -1.288417     -0.154213      2.723676
Si      1.33805      2.21787      1.85811        -0.065288      0.132775     -2.200083
O      1.33738      1.06969      0.68867        -0.809320      0.857709      1.708507
O      0.41541      1.77576      3.12241         0.525037      0.346333     -0.586503
O      3.23760      0.77477      4.37233         0.407364     -0.333279     -0.902114
O      0.78269      3.47440      0.94449         1.767610     -1.098713      3.074152
O      2.87098      2.40315      2.35286        -0.282072      0.658761     -0.480550
O     -1.19473      3.22013      4.78458         0.103028     -0.529619     -1.776026
