
# total energy =    -71.55621828

CRYSTAL
PRIMVEC
 4.841124287 -0.000315747 0.000227131
 -2.404069584 4.141886439 0.000559312
 -0.074943412 -0.086600062 5.321948743
PRIMCOORD
9 1 
Si     -0.16780      4.12086      0.01720         2.045481      2.733922      1.072084
Si     -1.07615      1.77976      3.48722        -0.873728     -1.422076      0.290588
Si      1.29157      2.34300      1.75624         1.180715     -2.552786      0.230282
O      1.33182      1.28202      0.46927         0.164186     -0.295275     -0.238139
O      0.36316      1.50684      2.81733         0.320297      0.510838      0.268740
O      3.19281      0.33892      4.11705         0.021287      0.864189      0.123524
O      0.81624      3.82558      1.42738        -1.671720      0.211017     -2.470502
O      2.83591      2.39907      2.29756        -0.259805      0.288398      0.767559
O     -0.98447      2.75811      4.78781        -0.946791     -0.364851     -0.031871
