
# total energy =    -71.86408212

CRYSTAL
PRIMVEC
 4.918916813 -0.000320821 0.000230781
 -2.452447185 4.242584362 0.000573382
 -0.018302526 -0.030227319 5.418866299
PRIMCOORD
9 1 
Si     -0.10970      4.21135      0.03963         0.190911      0.771122     -1.331351
Si      3.74309      1.88883      3.58016         0.985350      0.747705     -1.217938
Si      1.29238      2.31605      1.79810        -0.032129     -0.337261     -0.579404
O      1.52801      1.25290      0.59787        -0.926075     -0.279636     -0.901342
O      0.28412      1.66546      2.84011        -1.518391     -0.314788      0.981979
O      3.29366      0.52417      4.23646        -0.760067     -1.522241      0.845055
O      0.81530      3.79513      1.30929        -0.106915     -0.848278     -0.515959
O      2.70752      2.49858      2.47258         1.850475      0.235324      1.273048
O     -0.98249      2.95844      4.76789         0.342315      1.526226      1.443601
