
# total energy =    -71.49850827

CRYSTAL
PRIMVEC
 4.861498472 -0.000317076 0.000228087
 -2.416372438 4.169228579 0.000563171
 -0.058753261 -0.069516704 5.349876744
PRIMCOORD
9 1 
Si     -0.13556      4.07540      5.28531         0.126128      1.030794     -1.613552
Si     -1.09001      1.94397      3.62208        -0.240794     -2.838558     -2.441570
Si      1.36132      2.14230      1.80815        -1.127335      1.078497     -2.030916
O      1.43246      1.18407      0.42601        -0.862945      1.985594      2.468057
O      0.39986      1.65642      3.01793        -0.360577     -0.010108     -0.342473
O      3.27183      0.46258      4.09161        -0.331392     -0.224668      0.635217
O      0.68384      3.53865      1.14276         2.121132     -1.836305      2.515184
O      2.75249      2.51511      2.48851         0.600516     -0.207937     -0.870671
O     -1.20655      3.02991      4.71072         0.101021      0.994685      1.695919
