
# total energy =    -71.58582544

CRYSTAL
PRIMVEC
 4.919309256 -0.000320847 0.000230800
 -2.453760937 4.251557073 0.000574777
 -0.012483400 -0.016581616 5.423571522
PRIMCOORD
9 1 
Si      2.27289      0.00370      5.38622         0.752991      0.274511     -0.614586
Si     -1.07061      2.00613      3.63373        -1.696949     -1.002899      1.931848
Si      1.37910      2.23250      1.83143        -0.536065      1.234651      0.636072
O      1.41760      1.27424      0.53377         0.535899     -0.986843      0.315358
O      0.38790      1.66585      3.08004         1.700086      0.597288     -1.470114
O      3.29306      0.47006      4.15755        -0.190382      1.671727      0.396398
O      0.64152      3.51068      1.11189         1.254408      0.296975      1.823860
O      2.86617      2.59462      2.48898        -1.539965     -0.454130     -1.160830
O     -1.20958      3.13722      4.87266        -0.246323     -1.676324     -1.853508
