
# total energy =    -71.77482721

CRYSTAL
PRIMVEC
 4.912395831 -0.000320396 0.000230475
 -2.448173102 4.230704559 0.000571655
 -0.024529218 -0.040902251 5.409890028
PRIMCOORD
9 1 
Si      2.38130      0.01164      0.01106         0.031700      0.519831     -1.147754
Si     -1.09122      1.97718      3.59753        -0.627755     -1.013803      0.575356
Si      1.35855      2.20789      1.73143        -1.540125      1.898527      1.754468
O      1.36732      1.20612      0.53566         1.055494     -1.886462     -1.548916
O      0.27831      1.66056      2.81304        -1.046412     -0.000797      0.450794
O      3.27273      0.55343      4.19178        -0.075078     -0.492243      0.803146
O      0.84593      3.66411      1.20239         0.196187      0.282684      0.107236
O      2.59542      2.46987      2.67239         1.820506      0.669657     -0.547348
O     -1.03392      2.99890      4.87353         0.210710      0.003774     -0.461576
