
# total energy =    -71.57206680

CRYSTAL
PRIMVEC
 4.902091835 -0.000319724 0.000229992
 -2.442993480 4.219254838 0.000570040
 -0.028264146 -0.044572924 5.398949859
PRIMCOORD
9 1 
Si     -0.15537      4.15667      5.38629         0.368902     -0.811012     -1.740548
Si      3.67677      1.89823      3.61095         1.927562     -0.563639     -2.118983
Si      1.33501      2.27767      1.87147        -0.186474     -0.004421     -1.319781
O      1.61380      1.23996      0.63640        -1.311663      0.264925     -0.302670
O      0.33849      1.66524      2.96769        -1.174725      0.162747      0.619578
O      3.34892      0.36859      4.12062        -1.474918      0.945753      0.794531
O      0.78546      3.61883      1.15417         0.299910     -0.437337      0.621271
O      2.81302      2.63545      2.38681         0.800524     -0.994633      1.598643
O     -1.18060      3.02080      4.72958         0.750847      1.446847      1.813597
