
# total energy =    -71.61061922

CRYSTAL
PRIMVEC
 4.901194559 -0.000319665 0.000229950
 -2.442573508 4.218308144 0.000569906
 -0.028794514 -0.044873495 5.397953890
PRIMCOORD
9 1 
Si     -0.15819      4.17298      5.39628         0.832074     -2.200189     -2.488740
Si      3.67806      1.90030      3.58546         2.076284     -0.509282     -0.233837
Si      1.33861      2.27989      1.87408        -0.124220     -0.436029     -1.369074
O      1.60397      1.22493      0.62031        -1.899110      1.714679      0.857622
O      0.33754      1.66744      2.98302        -0.559721      0.212764      0.139591
O      3.33608      0.36314      4.11742        -1.287695      1.327086      0.620737
O      0.78412      3.60742      1.15804         0.279605     -0.165829      0.545238
O      2.83506      2.62011      2.38234        -0.048704     -0.738917      0.863598
O     -1.18434      3.02150      4.74902         0.711266      0.787903      1.047758
