
# total energy =    -71.74872346

CRYSTAL
PRIMVEC
 4.870368477 -0.000317655 0.000228503
 -2.422555141 4.181159937 0.000564817
 -0.052276950 -0.062689914 5.361788129
PRIMCOORD
9 1 
Si      2.30250     -0.06195      5.32425        -0.763577     -2.012892     -0.411472
Si     -1.12800      1.88339      3.52821         0.344740      0.893047      2.559917
Si      1.32266      2.20427      1.80754         0.379710     -0.647481     -0.855538
O      1.45633      1.09799      0.60408        -1.800529      2.562972      1.572184
O      0.40119      1.70099      3.04078        -0.147009     -0.172740     -0.337909
O      3.25892      0.46127      4.16035         0.759620      0.689755     -0.768293
O      0.82659      3.59737      1.18927        -0.130664     -0.064682     -0.258348
O      2.79320      2.43284      2.40024        -0.139225      0.262030     -1.152423
O     -1.27741      3.13301      4.66896         1.509902     -1.537984     -0.353775
