
# total energy =    -71.62221165

CRYSTAL
PRIMVEC
 4.863559210 -0.000317211 0.000228184
 -2.417706301 4.172008091 0.000563560
 -0.057211784 -0.067763263 5.352719247
PRIMCOORD
9 1 
Si     -0.13454      4.05793      5.29112         0.105161      2.303296     -0.953535
Si     -1.06989      1.94647      3.61567        -1.431975     -2.310551     -2.233073
Si      1.34058      2.13298      1.79917         0.129988      1.800317     -0.761871
O      1.43166      1.20060      0.48555        -0.022748     -0.286108      0.441368
O      0.40651      1.67652      3.02135        -0.512469     -0.258385      0.058734
O      3.27756      0.46198      4.08043        -0.576341     -0.206999      1.190118
O      0.71742      3.53912      1.15476         1.172495     -1.109881      1.504256
O      2.74149      2.50882      2.48538         0.866077     -0.401843     -0.645349
O     -1.23629      3.07110      4.68746         0.291083      0.439948      1.425770
