
# total energy =    -71.71340756

CRYSTAL
PRIMVEC
 4.858446186 -0.000316877 0.000227944
 -2.414456906 4.165147662 0.000562599
 -0.061161139 -0.072210581 5.345665355
PRIMCOORD
9 1 
Si      2.27977     -0.05457      5.25974         0.053603     -1.069397      1.549924
Si     -1.11981      1.90441      3.60012         1.265291     -0.431745     -0.465716
Si      1.37310      2.16914      1.79340        -1.677750     -0.130822     -1.168582
O      1.41329      1.20903      0.40395        -0.418373      1.692453      2.494569
O      0.38310      1.62792      3.00319         0.181596      0.110512     -0.718732
O      3.25749      0.45787      4.11975         0.465048     -0.158662     -0.572703
O      0.68414      3.50063      1.18042         0.577431      0.864417      0.247777
O      2.78085      2.51843      2.47061        -0.096001     -0.170968     -0.948938
O     -1.16382      2.98997      4.77797        -0.335721     -0.690649     -0.434062
