
# total energy =    -71.63771720

CRYSTAL
PRIMVEC
 4.884859749 -0.000318600 0.000229183
 -2.432235573 4.201618887 0.000567683
 -0.041710291 -0.050796546 5.380602000
PRIMCOORD
9 1 
Si      2.27757      0.05081      0.04121        -0.987227     -0.662292     -0.098012
Si     -1.04027      1.88638      3.55245        -0.064644      1.017825      0.234565
Si      1.38477      2.22774      1.69621        -1.044750      0.876458      2.758412
O      1.08427      1.12239      0.60868         2.091846     -2.153319     -1.722296
O      0.49874      1.73179      3.02493        -0.918064      0.066081     -0.070213
O      3.08700      0.61415      4.19369         0.371392     -0.637787      0.156908
O      0.85175      3.67761      1.22287        -0.552465      0.947257     -0.690856
O      2.86956      2.35728      2.29582         1.166966      0.179930      0.206928
O     -1.04672      2.92298      4.85027        -0.020333      0.341728     -0.749539
