
# total energy =    -72.21063393

CRYSTAL
PRIMVEC
 4.925483525 -0.000321250 0.000231089
 -2.461863588 4.267028601 0.000576907
 -0.000650904 0.000507318 5.434680960
PRIMCOORD
9 1 
Si     -0.13155      4.26067      0.00883        -0.508814     -0.123836     -1.025084
Si     -1.13072      1.98648      3.61379        -0.153259      0.322594      0.495681
Si      1.33033      2.27807      1.83060         0.239020     -0.363115     -1.200490
O      1.38037      1.13299      0.62527        -0.357418      1.135946      0.861436
O      0.35173      1.76684      2.99963        -0.240444     -0.238572      0.254308
O      3.27240      0.58139      4.23902         0.011476      0.059178      0.102691
O      0.77957      3.67017      1.18637         0.637818     -0.533683      0.546452
O      2.80797      2.53155      2.43891         0.045801     -0.092334     -0.055251
O     -1.11610      3.13016      4.78568         0.313296     -0.134165      0.012204
