
# total energy =    -71.72558048

CRYSTAL
PRIMVEC
 4.871049066 -0.000317699 0.000228535
 -2.423050414 4.182099443 0.000564947
 -0.051751187 -0.062141847 5.362702962
PRIMCOORD
9 1 
Si      2.30255     -0.05711      5.33268        -0.919560     -2.279850     -1.091539
Si     -1.14292      1.88029      3.52809         1.036778      0.916780      2.424799
Si      1.32870      2.21333      1.81346        -0.256908     -0.559515     -1.315494
O      1.45371      1.08369      0.61254        -2.183840      3.164640      1.867018
O      0.40065      1.69913      3.04159        -0.268877     -0.038301     -0.390886
O      3.26113      0.46707      4.16990         0.632021      0.518309     -0.810354
O      0.82712      3.62035      1.17852         0.481922     -0.997474      0.498244
O      2.80199      2.42247      2.38087        -0.020495      0.405119     -1.051908
O     -1.26819      3.11901      4.66241         1.493433     -1.127163     -0.123744
