
# total energy =    -71.77329003

CRYSTAL
PRIMVEC
 4.923191086 -0.000321100 0.000230982
 -2.458847577 4.266678581 0.000576992
 -0.005624041 0.000823664 5.433419459
PRIMCOORD
9 1 
Si      2.27150      0.03603      0.01837         1.883136     -1.370405     -1.916622
Si     -1.10527      2.08794      3.61895         0.185832     -1.022901      0.776513
Si      1.35828      2.21033      1.84315        -0.882201      0.143566     -2.030517
O      1.29378      1.02854      0.68078        -1.376539      2.069612      2.408307
O      0.42233      1.78133      3.09252        -0.560252      0.416421      0.085031
O      3.23357      0.78719      4.36486        -0.242031     -1.003360     -0.055623
O      0.82860      3.49483      0.96257         0.725493     -0.386522      1.864104
O      2.87302      2.37536      2.34569         0.190652      0.712128     -0.383313
O     -1.16983      3.20516      4.76955         0.062202      0.447341     -0.734555
