
# total energy =    -71.66285914

CRYSTAL
PRIMVEC
 4.922064387 -0.000321026 0.000230929
 -2.457589417 4.263672893 0.000576563
 -0.008416552 -0.002789026 5.431451037
PRIMCOORD
9 1 
Si      2.32568      0.01894      0.05969        -1.360190      0.165584      0.126121
Si     -1.10990      2.01288      3.62396        -0.987656      1.015928      0.684335
Si      1.35611      2.20925      1.76154        -0.621968      0.553632      0.789862
O      1.10525      0.91703      0.76552         1.780683      1.092771      0.113251
O      0.34545      1.87150      3.03168         2.057974     -0.165814     -0.666150
O      3.18647      0.70996      4.35013         0.901007      0.993577     -0.704259
O      0.94788      3.69871      1.10555         0.228469     -1.808556      0.878432
O      2.90940      2.34415      2.29963        -1.317177      0.131828     -0.308046
O     -1.09392      3.26096      4.71199        -0.681443     -1.985113     -0.911934
