
# total energy =    -71.92183167

CRYSTAL
PRIMVEC
 4.920936862 -0.000320953 0.000230876
 -2.455830505 4.257778892 0.000575689
 -0.010571701 -0.009721345 5.427615848
PRIMCOORD
9 1 
Si     -0.16544      4.21531      5.42046         0.353888      1.322710     -0.073667
Si      3.75567      1.99324      3.55134         0.920411     -0.222371      2.330415
Si      1.32619      2.26653      1.81489        -0.699068      0.063937     -0.003251
O      1.38044      1.06089      0.73978        -1.010263      0.590118     -0.198071
O      0.37950      1.83467      3.11400         1.182291     -0.011338     -1.491165
O      3.26334      0.64959      4.31780        -0.065333      0.025226     -0.677770
O      0.80372      3.69611      1.16612         1.115313     -1.921568      1.134897
O      2.87050      2.40347      2.30699        -0.687079      0.813885     -0.353620
O     -1.08476      3.12278      4.74771        -1.121439     -0.681574     -0.724986
