
# total energy =    -71.59430175

CRYSTAL
PRIMVEC
 4.916098039 -0.000320637 0.000230649
 -2.450232540 4.236336656 0.000572472
 -0.023097395 -0.037518967 5.414365697
PRIMCOORD
9 1 
Si      2.40854      0.05940      0.01965        -1.332360     -0.439738      0.542173
Si      3.76620      1.92561      3.67892         0.683366      2.027676     -4.062274
Si      1.24964      2.26095      1.77164         0.997585      0.461429     -1.086090
O      1.26685      1.16706      0.50834         1.595388     -0.241081     -0.123644
O      0.18249      1.62097      2.74087        -1.163415      0.114769      1.727145
O      3.34499      0.55017      4.24637        -1.176146     -2.218085      0.888503
O      0.91248      3.77954      1.22136        -0.284052     -0.494951      0.226980
O      2.69345      2.48975      2.47285         0.996077     -0.571950      1.752772
O     -0.83823      2.89902      4.90235        -0.279002      1.358162      0.150830
