
# total energy =    -71.83042609

CRYSTAL
PRIMVEC
 4.873267516 -0.000317844 0.000228640
 -2.424585702 4.185319003 0.000565397
 -0.049998226 -0.060140605 5.365741984
PRIMCOORD
9 1 
Si     -0.13452      4.12331      5.34807        -1.769566     -0.597777     -1.201649
Si      3.69392      1.87905      3.54871         2.326228      0.796738     -0.288738
Si      1.34210      2.23984      1.81906        -1.630758     -0.185790     -0.916018
O      1.40493      1.08948      0.67209        -1.065443      0.918566     -0.242969
O      0.39268      1.69403      3.03660        -0.343861      0.381167     -0.359344
O      3.27621      0.49233      4.19037        -0.483741     -0.671694     -0.025157
O      0.84418      3.67317      1.15804         1.078225     -2.005537      1.406591
O      2.83677      2.39469      2.29828         0.916971      0.436002      0.367098
O     -1.20917      3.05713      4.64256         0.978810      0.898727      1.272191
