
# total energy =    -71.64335233

CRYSTAL
PRIMVEC
 4.925124575 -0.000321226 0.000231072
 -2.461317124 4.267195069 0.000576960
 -0.000765773 0.001388172 5.434562152
PRIMCOORD
9 1 
Si     -0.10209      4.21012      5.40154        -1.453588      0.691028      0.652248
Si      3.77782      1.98093      3.59003        -0.313835      0.975390      0.548784
Si      1.35870      2.26860      1.86355         0.014766     -1.151909      0.376184
O      1.42223      1.11079      0.74446         0.811530     -1.019696     -1.309678
O      0.35828      1.84939      3.07912         0.775472     -0.738811     -0.099751
O      3.33123      0.50782      4.17773        -0.392963      0.805759      0.936407
O      0.69816      3.56800      1.26268        -0.706328      1.855998     -2.300831
O      2.81649      2.62961      2.43814         0.211753     -0.872267     -0.086544
O     -1.22360      3.26929      4.62913         1.049446     -0.543303      1.295027
