
# total energy =    -71.64777895

CRYSTAL
PRIMVEC
 4.911640286 -0.000320347 0.000230440
 -2.447745651 4.229735203 0.000571518
 -0.024736642 -0.041403401 5.409083371
PRIMCOORD
9 1 
Si      2.38408      0.00450      0.00270        -0.464180      0.121459     -1.082365
Si     -1.10123      1.95869      3.60034        -0.095603     -0.246777     -0.840749
Si      1.36314      2.21296      1.75140        -1.879985      1.720722      0.224575
O      1.40876      1.21562      0.55251         0.889925     -2.045782     -1.803466
O      0.31232      1.67106      2.81439        -2.864265     -0.367551      1.620292
O      3.27658      0.56381      4.18560        -0.406888     -1.441304      1.051354
O      0.83787      3.65318      1.20313        -0.001085      0.499070     -0.265014
O      2.57694      2.48532      2.66041         3.755061      0.602940      0.677377
O     -1.08066      2.99361      4.84207         1.058840      1.124927      0.399229
