
# total energy =    -71.57018441

CRYSTAL
PRIMVEC
 4.919168558 -0.000320838 0.000230793
 -2.453525027 4.250648061 0.000574640
 -0.012804029 -0.017706311 5.423037100
PRIMCOORD
9 1 
Si      2.26808      0.00363      5.40240         0.961174     -0.198304     -1.996835
Si     -1.06911      2.00182      3.64325        -1.274109     -1.223540      1.220122
Si      1.39797      2.22856      1.82843        -1.272434      1.392064      0.448642
O      1.43093      1.27829      0.51187         0.195892     -0.272952      0.773696
O      0.39692      1.65242      3.06029         1.044167      0.735477     -1.244548
O      3.29764      0.46452      4.12714        -0.635885      1.316650      1.152239
O      0.63052      3.52620      1.12378         1.627207     -0.279066      2.066691
O      2.83892      2.60354      2.51883        -0.919591     -0.418891     -1.208643
O     -1.22406      3.13090      4.85888         0.281113     -1.043712     -1.210273
