
# total energy =    -71.61807322

CRYSTAL
PRIMVEC
 4.855199495 -0.000316665 0.000227792
 -2.412509510 4.160813914 0.000561987
 -0.063759811 -0.074976868 5.341276512
PRIMCOORD
9 1 
Si      2.27667     -0.03076      5.25840        -1.378618     -1.458531      3.357826
Si     -1.12979      1.85677      3.56763         1.802601      1.692260      0.211454
Si      1.35948      2.19362      1.76210        -0.453967     -0.931094      1.682478
O      1.38436      1.27589      0.44780         1.025689     -1.612388     -0.395936
O      0.37059      1.60222      2.96883         0.400330      0.084663     -0.513203
O      3.25454      0.44725      4.13365         0.481249     -0.498315     -0.777425
O      0.70089      3.48973      1.22662        -1.111685      4.008354     -1.571878
O      2.80691      2.51564      2.42626        -0.515792     -0.436613     -0.455311
O     -1.12952      2.93422      4.83584        -0.249118     -0.853791     -1.543392
