
# total energy =    -71.62632898

CRYSTAL
PRIMVEC
 4.884280233 -0.000318562 0.000229156
 -2.431898207 4.200874211 0.000567578
 -0.042158993 -0.051182358 5.379919524
PRIMCOORD
9 1 
Si      2.27892      0.05822      0.05354        -1.250960     -0.986433     -0.775581
Si     -1.04718      1.88134      3.54813         0.171462      1.257079     -0.064060
Si      1.38368      2.22923      1.70719        -1.317414      0.959954      2.210013
O      1.08078      1.12045      0.61913         2.135138     -2.164303     -1.796860
O      0.49660      1.73416      3.01556        -1.121219      0.025059      0.186748
O      3.10410      0.61277      4.19636        -0.080794     -1.021467      0.390671
O      0.85572      3.68014      1.21203        -0.403054      0.733859     -0.392654
O      2.86746      2.35759      2.27603         1.601806      0.116327      0.595166
O     -1.04917      2.90933      4.83964         0.254199      1.045570     -0.380791
