
# total energy =    -71.78813100

CRYSTAL
PRIMVEC
 4.872657683 -0.000317804 0.000228611
 -2.424176281 4.184409483 0.000565269
 -0.050480880 -0.060721807 5.364900614
PRIMCOORD
9 1 
Si      2.29623     -0.05792      5.34601        -1.653609     -1.292125     -1.590722
Si      3.70031      1.87775      3.54092         2.169599      0.903191      0.734368
Si      1.34049      2.23290      1.81989        -1.505458     -0.317828     -1.346310
O      1.42441      1.08047      0.65189        -1.649238      2.072520      0.720628
O      0.39608      1.69480      3.03934        -0.383986      0.287748     -0.423649
O      3.27180      0.48549      4.18593        -0.127459     -0.314207     -0.328725
O      0.83583      3.66404      1.15970         1.243786     -2.119421      1.532068
O      2.82517      2.40116      2.32296         0.716659      0.486487     -0.128924
O     -1.22985      3.07489      4.64643         1.192155      0.271910      0.815792
