
# total energy =    -71.77657351

CRYSTAL
PRIMVEC
 4.906604257 -0.000320018 0.000230204
 -2.445157243 4.223894225 0.000570691
 -0.026412896 -0.043525735 5.403664543
PRIMCOORD
9 1 
Si     -0.12672      4.11156      5.32479         0.478964      2.445179      2.567755
Si      3.73939      1.88482      3.61261        -0.545136      1.069627      0.244149
Si      1.31655      2.27688      1.82515         0.997715     -0.735420      0.315382
O      1.60273      1.23124      0.61002        -0.698489     -0.286610     -0.250430
O      0.25837      1.66749      2.94458         1.809532      0.166617     -1.013494
O      3.30602      0.44010      4.19254         0.342752      0.547878     -0.814880
O      0.80233      3.64503      1.16904         0.007441     -0.186915      0.081568
O      2.77053      2.62183      2.54508        -1.382459     -0.768696     -0.585670
O     -1.13863      3.08497      4.75650        -1.014849     -2.235368     -0.547327
