
# total energy =    -71.72032984

CRYSTAL
PRIMVEC
 4.905415891 -0.000319941 0.000230148
 -2.444535031 4.222681261 0.000570524
 -0.026791609 -0.043747674 5.402460784
PRIMCOORD
9 1 
Si     -0.13785      4.10615      5.33070         0.710115      2.934883      2.214642
Si      3.71627      1.88369      3.63135         0.466730      1.052734     -1.962925
Si      1.31909      2.27554      1.83781         0.568342      0.033113      0.305953
O      1.61004      1.25749      0.64129        -0.258398     -1.782683     -1.721623
O      0.28537      1.66431      2.94606         0.156775      0.230155      0.019841
O      3.32958      0.41760      4.16864        -0.585387      0.220862      0.083646
O      0.79843      3.64159      1.16253        -0.109673     -0.182468      0.063363
O      2.77636      2.64092      2.48540        -0.046788     -1.146966      0.915733
O     -1.14446      3.07305      4.73915        -0.871264     -1.364320      0.101803
