
# total energy =    -71.89012989

CRYSTAL
PRIMVEC
 4.919703208 -0.000320872 0.000230818
 -2.454276154 4.253701735 0.000575101
 -0.011948533 -0.014267554 5.424873698
PRIMCOORD
9 1 
Si      2.29333      0.00634      5.35223        -0.731533     -0.690577      2.524378
Si     -1.10498      1.99796      3.64392        -0.452359     -0.306100     -0.660571
Si      1.33338      2.25926      1.84942         1.386432     -0.680999     -0.202886
O      1.40844      1.22479      0.58940         0.511587     -1.245869     -0.104286
O      0.41595      1.71479      3.08218        -0.464010      0.180377      0.195598
O      3.28396      0.54054      4.22794         0.656771      0.962884     -0.986753
O      0.69585      3.50423      1.13185        -0.642977      2.495715     -0.602807
O      2.87795      2.55663      2.39202        -0.520685     -0.687518      0.604721
O     -1.18461      3.09861      4.84202         0.233595     -0.023383     -0.767338
