
# total energy =    -71.89339239

CRYSTAL
PRIMVEC
 4.919986672 -0.000320891 0.000230831
 -2.454619149 4.254882306 0.000575276
 -0.011639223 -0.013055205 5.425623169
PRIMCOORD
9 1 
Si      2.29944      0.00211      5.35792        -0.815791     -1.056195      1.965312
Si     -1.13258      1.98854      3.64788         0.712592      0.404263     -2.758937
Si      1.32065      2.27033      1.85877         1.493508     -0.992110     -1.451078
O      1.41470      1.17113      0.61920        -0.202643     -0.123877      0.280722
O      0.43132      1.74720      3.08038        -1.583000     -0.076773      0.943392
O      3.28974      0.60236      4.25063        -0.180679     -1.039165     -0.293825
O      0.71939      3.54507      1.13956        -0.423291      1.657047     -0.652908
O      2.86894      2.52196      2.34427         0.314240     -0.543444      1.344834
O     -1.16875      3.06930      4.80381         0.684335      1.757182      0.641169
