
# total energy =    -71.71876919

CRYSTAL
PRIMVEC
 4.921344787 -0.000320980 0.000230895
 -2.456506839 4.259465135 0.000575931
 -0.010175626 -0.007755289 5.428720101
PRIMCOORD
9 1 
Si     -0.15563      4.22384      0.03342         0.686900      1.192731      0.850967
Si     -1.15078      2.00153      3.52359         0.153087     -0.867052      2.828841
Si      1.31783      2.26090      1.77486         0.000881      0.112415      2.089870
O      1.29800      1.02544      0.81050         0.058448     -1.636046     -2.070210
O      0.37894      1.88772      3.07634         0.821567     -0.456550     -0.771457
O      3.22810      0.64214      4.33942         0.703630      1.357146     -1.028464
O      0.91069      3.70596      1.23251        -1.323062      0.399266     -1.604155
O      2.85194      2.36235      2.28940        -0.055193      0.691102     -0.219091
O     -1.07304      3.16108      4.69819        -1.022849     -0.762712     -0.049895
