
# total energy =    -71.64262306

CRYSTAL
PRIMVEC
 4.913739443 -0.000320484 0.000230538
 -2.448963546 4.232544864 0.000571917
 -0.024286021 -0.039980677 5.411347269
PRIMCOORD
9 1 
Si      2.37969      0.03447      0.01080         0.990377      0.164981     -0.305861
Si     -1.08453      1.99502      3.61066        -1.447110     -1.725475      2.823459
Si      1.32704      2.22363      1.72101        -0.477898      0.114595      1.679450
O      1.31147      1.14905      0.47348         0.360734      1.180141      1.422657
O      0.20169      1.64036      2.81037         2.448374      0.191162     -1.569156
O      3.26780      0.52758      4.22148         0.916193      1.146538     -0.399549
O      0.86877      3.69228      1.20620         0.237352      0.062829      0.360142
O      2.66160      2.45937      2.66723        -1.857775      0.765904     -2.465620
O     -0.94314      2.99720      4.91530        -1.159088     -1.865782     -1.572314
