
# total energy =    -71.69549874

CRYSTAL
PRIMVEC
 4.915212824 -0.000320580 0.000230607
 -2.449676868 4.234929205 0.000572270
 -0.023777560 -0.038613226 5.413225994
PRIMCOORD
9 1 
Si      2.40215      0.06234      0.00570        -0.652047     -1.113239      0.986841
Si     -1.11942      1.96125      3.68841        -0.187433     -0.536972     -4.061055
Si      1.27069      2.24972      1.75641         0.912190     -0.229415     -0.733507
O      1.26370      1.13426      0.46583         1.061850      0.956080      1.088242
O      0.20103      1.62520      2.74509        -1.251709      0.093638      1.622785
O      3.31149      0.54944      4.23978        -0.067218     -0.724929      0.013164
O      0.90598      3.74027      1.22298        -0.604758      0.306416     -0.510540
O      2.67614      2.48162      2.54334         0.739596     -0.339757      0.784082
O     -0.87373      2.91669      4.90017         0.040381      1.603157      0.845337
