
# total energy =    -71.82798503

CRYSTAL
PRIMVEC
 4.922916735 -0.000321082 0.000230969
 -2.458510904 4.266304285 0.000576947
 -0.006137138 0.000415577 5.433143712
PRIMCOORD
9 1 
Si      2.26404      0.04211      0.01941         2.302049     -1.449112     -0.901836
Si     -1.11778      2.09322      3.64522         1.004837     -1.794122     -1.658336
Si      1.36952      2.20509      1.81890        -1.090985      0.121621     -0.617666
O      1.24516      1.01601      0.69911        -0.499601      0.912364      1.256351
O      0.42284      1.79016      3.06906        -1.105745      0.449175      0.598164
O      3.22829      0.78676      4.35763        -0.609511     -1.380846      0.540893
O      0.87390      3.50662      0.99792        -0.628864      0.958999      0.228979
O      2.87627      2.36065      2.33576         0.546162      0.592960     -0.019556
O     -1.14913      3.19734      4.74901         0.089709      1.589717      0.600942
