
# total energy =    -71.57264994

CRYSTAL
PRIMVEC
 4.921691681 -0.000321002 0.000230911
 -2.457203576 4.261514514 0.000576231
 -0.009727600 -0.005464678 5.430053183
PRIMCOORD
9 1 
Si     -0.13252      4.26109      0.10022        -0.214148     -0.639736     -2.456382
Si     -1.12374      1.98426      3.57894        -0.073889      0.977956     -0.935976
Si      1.31384      2.24756      1.78145         1.237462     -0.512664     -1.169249
O      1.18778      0.90637      0.78580         0.146866      1.832736      0.302939
O      0.40116      1.91753      3.00189        -1.738000     -0.974613      1.882125
O      3.21667      0.70065      4.31528        -0.470712     -1.071662      1.045024
O      0.96300      3.73660      1.20935        -0.925746     -0.659402     -1.081356
O      2.84499      2.35101      2.26644         1.169179     -0.029780      0.823718
O     -1.11056      3.18405      4.65079         0.899978      1.088011      1.601195
