
# total energy =    -71.53976694

CRYSTAL
PRIMVEC
 4.860647607 -0.000317021 0.000228047
 -2.415831516 4.168086417 0.000563011
 -0.059413013 -0.070264425 5.348697455
PRIMCOORD
9 1 
Si     -0.13583      4.08554      5.27913         0.305970      0.296749     -1.040144
Si     -1.09924      1.93614      3.61865         0.198602     -2.379769     -1.968385
Si      1.36746      2.14892      1.80728        -1.522890      0.793646     -2.067170
O      1.42980      1.18410      0.41114        -0.996933      2.403489      2.822021
O      0.39544      1.64809      3.01546        -0.198360      0.051062     -0.501057
O      3.26782      0.46182      4.09928        -0.139079     -0.205153      0.316974
O      0.67885      3.53091      1.14812         1.931196     -1.436277      2.141995
O      2.75965      2.51655      2.48626         0.427390     -0.160720     -0.922903
O     -1.19408      3.01748      4.72725        -0.013741      0.629486      1.232959
