
# total energy =    -71.97529005

CRYSTAL
PRIMVEC
 4.895574075 -0.000319299 0.000229686
 -2.438944966 4.212684258 0.000569164
 -0.033124711 -0.046490183 5.391962567
PRIMCOORD
9 1 
Si     -0.14346      4.15034      5.35406        -1.278564      0.989809      1.545302
Si     -1.10616      1.89643      3.56181        -0.844101      1.348726      1.084201
Si      1.35846      2.24523      1.83470        -0.319557      0.692214     -0.314437
O      1.39543      1.25102      0.60394         0.861532     -2.674693     -1.791044
O      0.38967      1.70278      3.02417         0.421834     -0.176080      0.026112
O      3.18084      0.49825      4.12092         0.327558      0.010871     -0.058602
O      0.77388      3.61532      1.19943        -0.005343      0.825676     -0.074445
O      2.85641      2.49880      2.35382         0.711074     -0.109511      1.027010
O     -1.15959      2.99852      4.84429         0.136664     -0.915248     -1.431405
