
# total energy =    -71.63204891

CRYSTAL
PRIMVEC
 4.919038383 -0.000320829 0.000230787
 -2.453216564 4.249562319 0.000574479
 -0.013326706 -0.019211519 5.422420780
PRIMCOORD
9 1 
Si      2.26949      0.00126      5.40770         1.112859     -1.063317     -2.130003
Si     -1.07650      1.98697      3.66299        -0.347959     -1.264549     -0.861589
Si      1.41148      2.23396      1.82782        -1.866028      0.978855     -0.110997
O      1.45005      1.27995      0.49480        -0.090464      0.228771      0.981685
O      0.42002      1.64538      3.02037        -0.734303      0.643716     -0.145731
O      3.29460      0.47443      4.10532        -0.885351      0.498969      1.754290
O      0.63767      3.54286      1.16454         1.012306      0.134442      0.874169
O      2.79446      2.60895      2.54083         0.724812     -0.432908     -0.555611
O     -1.23761      3.11031      4.82696         1.064715      0.273921      0.170811
