
# total energy =    -71.91280909

CRYSTAL
PRIMVEC
 4.849381148 -0.000316286 0.000227519
 -2.409151232 4.152804456 0.000560845
 -0.068397617 -0.079719626 5.333326038
PRIMCOORD
9 1 
Si      2.29281      0.03948      0.01475        -0.514466     -0.717422     -2.717226
Si     -1.09089      1.83266      3.52069        -0.485892     -0.046028      0.549023
Si      1.31681      2.22701      1.76913         0.172786      1.628070     -0.414571
O      1.39265      1.27841      0.47655        -0.520163     -0.155809     -0.512982
O      0.37355      1.56394      2.88165        -0.136374     -0.056986      0.407393
O      3.26084      0.39398      4.12215        -0.776821     -0.006288      0.184151
O      0.69098      3.67658      1.24537         1.925018     -1.483444      2.364548
O      2.82168      2.48073      2.33188        -0.033549     -0.309583      0.692947
O     -1.07981      2.80411      4.83873         0.390870      1.145811     -0.562484
