
# total energy =    -71.59405374

CRYSTAL
PRIMVEC
 4.887310031 -0.000318760 0.000229298
 -2.433732096 4.204508268 0.000568082
 -0.039888104 -0.049370836 5.383346229
PRIMCOORD
9 1 
Si      2.22492     -0.03129      5.38177         1.003283      0.858537      1.491815
Si     -1.01787      1.91581      3.57715        -1.223622     -0.404835      1.070394
Si      1.37829      2.23023      1.69174        -0.167443     -0.200686      2.407998
O      1.14421      1.09058      0.53747         0.938036      0.625143      0.866206
O      0.49166      1.72420      3.05450         0.120925      0.107171     -1.023406
O      3.03826      0.61346      4.18030         1.829734      0.461130     -0.665569
O      0.82239      3.68918      1.24590        -0.284184      0.263299     -0.915031
O      2.89240      2.36290      2.36901        -0.933928      0.613371     -1.511755
O     -1.04632      2.96633      4.86573        -1.282090     -2.310436     -1.751997
