
# total energy =    -71.62844337

CRYSTAL
PRIMVEC
 4.919006168 -0.000320827 0.000230785
 -2.453097428 4.249140142 0.000574416
 -0.013572716 -0.019846803 5.422190846
PRIMCOORD
9 1 
Si      2.27264     -0.00188      5.40460         1.115652     -1.222632     -1.759584
Si     -1.08077      1.97796      3.66990        -0.033591     -1.153528     -1.678523
Si      1.41263      2.23872      1.82762        -1.933358      0.723051     -0.383841
O      1.45751      1.28128      0.49203        -0.090254      0.210961      0.927574
O      0.42772      1.64541      3.00274        -1.421909      0.496529      0.369264
O      3.28980      0.48123      4.10355        -0.895242      0.104684      1.839978
O      0.64551      3.54955      1.18581         0.592412      0.517488      0.214686
O      2.77825      2.60928      2.54664         1.372069     -0.449533     -0.241675
O     -1.23921      3.10206      4.81370         1.297397      0.743548      0.679235
