
# total energy =    -71.63445151

CRYSTAL
PRIMVEC
 4.886369074 -0.000318698 0.000229254
 -2.433146131 4.203442597 0.000567936
 -0.040581153 -0.049883239 5.382311391
PRIMCOORD
9 1 
Si      2.26956      0.02963      0.01166         0.181186      0.445016      1.296705
Si     -1.02437      1.90408      3.56565        -0.847758      0.154698      0.965088
Si      1.38202      2.22853      1.68592        -0.423985      0.201703      2.905641
O      1.11425      1.10681      0.56666         1.583910     -0.729222     -0.346681
O      0.49581      1.72661      3.04626        -0.227920      0.107307     -0.707924
O      3.05060      0.61303      4.18717         1.460975      0.286487     -0.496583
O      0.83580      3.68124      1.24167        -0.515670      0.764597     -1.020733
O      2.88410      2.35893      2.34510        -0.266066      0.450765     -0.939312
O     -1.04282      2.95629      4.86681        -0.942797     -1.662668     -1.662354
