
# total energy =    -71.71022835

CRYSTAL
PRIMVEC
 4.843242320 -0.000315886 0.000227231
 -2.405415827 4.144601377 0.000559689
 -0.073291549 -0.084810503 5.324811496
PRIMCOORD
9 1 
Si     -0.16993      4.13703      0.02943         2.275402      1.085200     -0.393850
Si     -1.06854      1.80736      3.49408        -1.395128     -1.899189      0.072537
Si      1.28848      2.31653      1.77040         1.273858     -1.180946     -0.934591
O      1.36366      1.26113      0.46163        -0.795431      0.972854      0.478421
O      0.36890      1.52088      2.82400        -0.049329      0.169070      0.565833
O      3.21520      0.34122      4.11698        -0.224669      0.913420      0.117098
O      0.78270      3.80795      1.38300        -0.772533     -0.772723     -1.327300
O      2.83052      2.41929      2.29167         0.088093      0.108028      1.043173
O     -1.00688      2.75533      4.79531        -0.385984      0.606558      0.386850
