
# total energy =    -71.89803297

CRYSTAL
PRIMVEC
 4.896563355 -0.000319363 0.000229732
 -2.439650261 4.213612453 0.000569281
 -0.032286247 -0.046266505 5.392958924
PRIMCOORD
9 1 
Si     -0.14315      4.15857      5.36036        -1.060832      0.583282      1.355726
Si     -1.12984      1.89466      3.54154        -0.471564      0.951590      2.561818
Si      1.35561      2.25516      1.84329        -0.215022      0.103163      0.015185
O      1.43239      1.25803      0.61158         0.717534     -2.449727     -1.504512
O      0.36364      1.69581      3.02704         1.248898     -0.059374     -0.550449
O      3.20652      0.45834      4.12320         0.406647      0.823676     -0.356453
O      0.77931      3.59562      1.19485        -0.281072      1.419687     -0.210825
O      2.86778      2.51836      2.36135        -0.294720     -0.023170      0.396028
O     -1.16513      3.01733      4.84595        -0.021021     -1.344728     -1.679455
