
# total energy =    -71.74162411

CRYSTAL
PRIMVEC
 4.915086691 -0.000320571 0.000230602
 -2.449615104 4.234719523 0.000572239
 -0.023850655 -0.038752052 5.413059558
PRIMCOORD
9 1 
Si      2.39999      0.06143      0.00497        -0.495665     -1.151567      0.960769
Si     -1.11485      1.96669      3.68350        -0.371096     -0.877827     -3.471645
Si      1.27514      2.24814      1.75284         0.792766     -0.349187     -0.518231
O      1.26635      1.13094      0.46144         0.914250      1.162263      1.325428
O      0.19990      1.62590      2.75037        -0.899119      0.148783      1.297307
O      3.30549      0.54587      4.23977         0.174671     -0.318464     -0.219542
O      0.90367      3.73496      1.22226        -0.573983      0.346990     -0.475917
O      2.67609      2.47940      2.55632         0.489931     -0.266510      0.471682
O     -0.87862      2.92362      4.90196        -0.064199      1.311362      0.679946
