
# total energy =    -71.63939024

CRYSTAL
PRIMVEC
 4.883435142 -0.000318507 0.000229117
 -2.431416592 4.199744490 0.000567417
 -0.042831129 -0.051778654 5.378893051
PRIMCOORD
9 1 
Si      2.27770      0.06671      0.06977        -1.371718     -1.295773     -1.702057
Si     -1.05705      1.87705      3.54142         0.356676      1.376885     -0.263713
Si      1.37860      2.23389      1.72901        -1.493288      0.819522      0.999650
O      1.08514      1.10805      0.62688         2.015148     -1.546089     -1.375535
O      0.48823      1.73777      3.00257        -1.267090     -0.073185      0.549279
O      3.12919      0.60589      4.20225        -0.521080     -1.326162      0.567343
O      0.86003      3.68699      1.19427        -0.056224      0.202414      0.171123
O      2.87168      2.35853      2.24925         1.843212      0.045648      0.952266
O     -1.05157      2.89395      4.82220         0.493195      1.817196      0.095849
