
# total energy =    -71.79420242

CRYSTAL
PRIMVEC
 4.912577094 -0.000320408 0.000230484
 -2.448280483 4.230940863 0.000571688
 -0.024488873 -0.040782290 5.410080929
PRIMCOORD
9 1 
Si      2.38051      0.01380      0.01216         0.188498      0.579886     -1.102589
Si     -1.08915      1.98109      3.59696        -0.768788     -1.167753      1.026217
Si      1.35596      2.20827      1.72765        -1.403810      1.768840      1.967449
O      1.35854      1.20069      0.52886         1.023833     -1.603689     -1.269025
O      0.26743      1.65779      2.81389        -0.458328      0.059275      0.100503
O      3.27148      0.54971      4.19466         0.038579     -0.238408      0.703129
O      0.84814      3.66736      1.20221         0.247946      0.220713      0.179784
O      2.60364      2.46698      2.67510         1.181575      0.693530     -0.927656
O     -1.02159      3.00070      4.88105        -0.026754     -0.336507     -0.700959
