
# total energy =    -71.64411558

CRYSTAL
PRIMVEC
 4.886060682 -0.000318678 0.000229240
 -2.432956658 4.203082554 0.000567887
 -0.040808763 -0.050059860 5.381968398
PRIMCOORD
9 1 
Si      2.27140      0.03387      0.01701        -0.096006      0.229604      1.076261
Si     -1.02718      1.90018      3.56252        -0.690961      0.345238      0.859905
Si      1.38302      2.22803      1.68591        -0.528281      0.355699      2.999487
O      1.10603      1.11170      0.57630         1.739216     -1.138381     -0.704069
O      0.49702      1.72753      3.04256        -0.373136      0.101055     -0.606501
O      3.05661      0.61330      4.18879         1.269053      0.154055     -0.401191
O      0.83970      3.67939      1.23905        -0.566623      0.879296     -0.994595
O      2.88082      2.35820      2.33583         0.016048      0.397686     -0.722235
O     -1.04291      2.95070      4.86511        -0.763049     -1.289912     -1.511193
