
# total energy =    -71.74143567

CRYSTAL
PRIMVEC
 4.923956192 -0.000321150 0.000231018
 -2.459842073 4.267703495 0.000577111
 -0.003459660 0.002054145 5.434269428
PRIMCOORD
9 1 
Si     -0.14750      4.25758      5.37524        -1.247092      0.222128      1.818308
Si     -1.10828      2.04325      3.61492        -0.674542      0.861296     -0.664652
Si      1.30600      2.23835      1.85164         2.159857     -1.064344      1.557173
O      1.43149      1.13289      0.74471         0.450401     -2.936621     -1.753792
O      0.43787      1.78390      3.15669        -0.483954      0.255129     -0.190737
O      3.28039      0.71762      4.32709         0.007307     -1.050308     -0.203186
O      0.73522      3.42254      1.04973        -1.354282      3.348855     -1.298306
O      2.85273      2.50908      2.35819         0.255220     -0.225204      0.657488
O     -1.23838      3.23255      4.71572         0.896711      0.614858      0.065742
