
# total energy =    -71.70324704

CRYSTAL
PRIMVEC
 4.923620281 -0.000321128 0.000231002
 -2.459367908 4.267266776 0.000577063
 -0.004614621 0.001422237 5.433877499
PRIMCOORD
9 1 
Si      2.30213      0.01004      5.42084        -1.394884      0.715292     -0.527159
Si     -1.08383      2.06411      3.58729        -1.965508      0.269599      2.781455
Si      1.32515      2.22293      1.85805         0.571880      0.127514     -1.339551
O      1.35688      1.10202      0.70667        -0.084588     -0.863386      0.408785
O      0.41391      1.77498      3.13677         0.926926      0.309771     -0.795879
O      3.24227      0.76418      4.37111         0.648556     -0.146367     -1.167245
O      0.76690      3.45487      0.95472         1.361824     -0.348946      2.643159
O      2.86817      2.42463      2.35372        -0.296858      0.510939     -0.231945
O     -1.20895      3.22613      4.78167         0.267514     -0.579946     -1.796546
