
# total energy =    -71.82821048

CRYSTAL
PRIMVEC
 4.892206433 -0.000319079 0.000229528
 -2.436747556 4.209546173 0.000568758
 -0.036002467 -0.047319288 5.388591965
PRIMCOORD
9 1 
Si     -0.17232      4.14617      5.36006        -0.396315      0.639824     -0.063754
Si     -1.04562      1.92641      3.62687        -0.759113     -0.969456     -3.430626
Si      1.36235      2.22971      1.78998         0.231038      0.560547     -1.189511
O      1.30118      1.14591      0.52805        -0.064187      0.686611      0.936512
O      0.46816      1.71739      3.02800        -1.336816     -0.205713      0.651823
O      3.10197      0.60605      4.12245         0.066614     -1.960863      0.830655
O      0.76501      3.69089      1.21708         0.827616     -1.282652      0.239307
O      2.85799      2.43120      2.36906         0.765986      0.209477      0.203183
O     -1.12830      2.92940      4.80896         0.699319      2.348928      1.819960
