
# total energy =    -71.67243819

CRYSTAL
PRIMVEC
 4.899391809 -0.000319548 0.000229865
 -2.441588055 4.216417117 0.000569646
 -0.030023952 -0.045492444 5.395950185
PRIMCOORD
9 1 
Si      2.28583     -0.03254      5.39299         0.693624     -2.330576     -1.776852
Si      3.69977      1.89989      3.53848         1.837172     -0.387743      3.347559
Si      1.34504      2.27899      1.86750         0.075603     -1.136278     -0.741477
O      1.55337      1.22450      0.60468        -1.474533      1.528181      1.208312
O      0.33088      1.67552      3.01293         0.992647      0.244872     -0.787551
O      3.29123      0.37511      4.11963        -0.560450      1.699290      0.087303
O      0.78499      3.58505      1.17325        -0.135324      0.997360      0.002752
O      2.87318      2.57943      2.38255        -1.745999      0.017437     -0.716563
O     -1.18125      3.03156      4.80008         0.348115     -0.643580     -0.651392
