
# total energy =    -71.99650867

CRYSTAL
PRIMVEC
 4.895240272 -0.000319277 0.000229670
 -2.438711461 4.212374575 0.000569125
 -0.033409528 -0.046564812 5.391629697
PRIMCOORD
9 1 
Si     -0.14442      4.14823      5.35301        -1.314612      1.068464      1.464901
Si     -1.09881      1.89790      3.56955        -0.882147      1.376164      0.577170
Si      1.35920      2.24231      1.83169        -0.336518      0.818840     -0.483222
O      1.38413      1.24547      0.59927         0.859805     -2.571053     -1.682910
O      0.39908      1.70492      3.02308         0.118961     -0.203855      0.177534
O      3.17270      0.51181      4.11999         0.266842     -0.289690      0.064206
O      0.77198      3.62305      1.20083         0.106199      0.583522      0.003282
O      2.85322      2.49216      2.35240         0.960429     -0.117412      1.122425
O     -1.15763      2.99100      4.84192         0.221577     -0.675927     -1.234940
