
# total energy =    -71.65387986

CRYSTAL
PRIMVEC
 4.899694795 -0.000319568 0.000229879
 -2.441770250 4.216731567 0.000569688
 -0.029803188 -0.045392144 5.396283961
PRIMCOORD
9 1 
Si      2.28478     -0.03235      5.39547         0.859253     -2.604631     -2.113072
Si      3.69440      1.90033      3.54447         1.969415     -0.419064      2.919967
Si      1.34397      2.27993      1.86949         0.050717     -1.073717     -0.880020
O      1.56467      1.22141      0.60515        -1.732530      1.904230      1.406540
O      0.33139      1.67379      3.00869         0.761904      0.258275     -0.704751
O      3.30003      0.37068      4.11880        -0.696001      1.680875      0.175019
O      0.78476      3.58801      1.17036        -0.051836      0.786066      0.118486
O      2.86861      2.58664      2.38280        -1.554674     -0.104767     -0.546199
O     -1.18252      3.03007      4.79161         0.413431     -0.442625     -0.400533
