
# total energy =    -71.84807615

CRYSTAL
PRIMVEC
 4.921050471 -0.000320960 0.000230881
 -2.455994282 4.258159796 0.000575743
 -0.010450600 -0.009260496 5.427874677
PRIMCOORD
9 1 
Si     -0.16719      4.21146      5.42795         0.595663      1.660192      0.471817
Si      3.75754      1.99682      3.53698         0.759226     -0.591351      3.235887
Si      1.32570      2.26444      1.80312        -0.683600      0.271320      0.707603
O      1.36418      1.05568      0.76054        -0.700284     -0.109721     -0.769929
O      0.37297      1.84719      3.11205         1.526207     -0.084836     -1.617469
O      3.25360      0.64372      4.32733         0.278594      0.700493     -1.014236
O      0.82692      3.70309      1.18064         0.629704     -1.583841      0.602172
O      2.87016      2.39039      2.30619        -0.949969      0.942668     -0.707044
O     -1.07581      3.13687      4.74036        -1.459110     -1.228002     -0.939888
