
# total energy =    -72.14847505

CRYSTAL
PRIMVEC
 4.925480935 -0.000321249 0.000231089
 -2.461859489 4.267028391 0.000576907
 -0.000652219 0.000510923 5.434679649
PRIMCOORD
9 1 
Si     -0.12548      4.25763      0.01251        -0.757503     -0.159410     -1.511573
Si     -1.13035      1.98347      3.60925        -0.230204      0.474549      0.696864
Si      1.33001      2.28016      1.83947         0.367032     -0.485696     -1.727643
O      1.38557      1.12142      0.62521        -0.517338      1.610738      1.202241
O      0.35437      1.77529      3.00079        -0.359111     -0.363616      0.413879
O      3.27620      0.57603      4.23332         0.010969      0.075985      0.154672
O      0.76888      3.66775      1.18718         0.937137     -0.790576      0.815635
O      2.80751      2.53924      2.43952         0.078790     -0.146947     -0.084506
O     -1.12737      3.14040      4.77478         0.475689     -0.212199      0.024370
