
# total energy =    -71.60671921

CRYSTAL
PRIMVEC
 4.886994072 -0.000318739 0.000229284
 -2.433534253 4.204155446 0.000568034
 -0.040121128 -0.049538770 5.383000217
PRIMCOORD
9 1 
Si      2.26617      0.02169      0.00233         0.736755      0.773434      1.496624
Si     -1.01967      1.91196      3.57295        -1.114553     -0.223501      1.083896
Si      1.37963      2.22969      1.68889        -0.244169     -0.091178      2.595085
O      1.13347      1.09598      0.54700         1.191174      0.159375      0.449277
O      0.49305      1.72494      3.05229         0.023139      0.110765     -0.923607
O      3.04134      0.61306      4.18296         1.744709      0.447833     -0.632747
O      0.82710      3.68623      1.24508        -0.371287      0.445785     -0.971993
O      2.89003      2.36125      2.36181        -0.743709      0.571124     -1.340439
O     -1.04445      2.96427      4.86716        -1.211149     -2.196432     -1.788535
