
# total energy =    -71.81184348

CRYSTAL
PRIMVEC
 4.872964656 -0.000317824 0.000228625
 -2.424383370 4.184865358 0.000565333
 -0.050237421 -0.060431596 5.365323983
PRIMCOORD
9 1 
Si      2.29345     -0.05980      5.34701        -1.738179     -0.940907     -1.444863
Si      3.69672      1.87825      3.54478         2.271286      0.862891      0.235719
Si      1.34157      2.23641      1.81967        -1.599551     -0.260613     -1.156484
O      1.41508      1.08452      0.66191        -1.358140      1.517200      0.281779
O      0.39449      1.69431      3.03810        -0.365040      0.339260     -0.415470
O      3.27410      0.48906      4.18821        -0.309879     -0.500157     -0.189292
O      0.83964      3.66924      1.15841         1.196155     -2.104507      1.525285
O      2.83072      2.39779      2.31059         0.836096      0.459758      0.110295
O     -1.21984      3.06583      4.64418         1.093205      0.599068      1.050410
