
# total energy =    -71.79761363

CRYSTAL
PRIMVEC
 4.912755057 -0.000320419 0.000230492
 -2.448386876 4.231175124 0.000571721
 -0.024452599 -0.040664360 5.410268448
PRIMCOORD
9 1 
Si      2.37978      0.01616      0.01289         0.351823      0.613033     -1.063689
Si     -1.08735      1.98459      3.59675        -0.911543     -1.305975      1.506362
Si      1.35290      2.20925      1.72455        -1.254646      1.585836      2.104410
O      1.35037      1.19429      0.52129         0.958820     -1.244300     -0.861713
O      0.25626      1.65505      2.81479         0.133198      0.109585     -0.282432
O      3.27025      0.54584      4.19797         0.174563      0.021852      0.541881
O      0.85051      3.67074      1.20214         0.294402      0.165521      0.291839
O      2.61256      2.46451      2.67726         0.541605      0.720844     -1.330486
O     -1.00928      3.00230      4.88813        -0.277483     -0.671912     -0.919463
