
# total energy =    -71.68465011

CRYSTAL
PRIMVEC
 4.911040907 -0.000320308 0.000230412
 -2.447435491 4.228977828 0.000571409
 -0.024939732 -0.041793796 5.408424758
PRIMCOORD
9 1 
Si     -0.08772      4.18687      5.40151        -0.660347     -0.310039     -0.907116
Si     -1.10930      1.94365      3.59992         0.151783      0.279384     -1.105544
Si      1.35997      2.22295      1.76771        -1.583186      1.028299     -0.791391
O      1.44548      1.21008      0.55400         0.436910     -1.164159     -1.018478
O      0.32090      1.67681      2.82486        -3.134045     -0.544117      1.823862
O      3.27707      0.56304      4.18741        -0.397642     -1.801798      0.925881
O      0.83192      3.64797      1.20218        -0.064367      0.531791     -0.430405
O      2.58538      2.50072      2.65484         3.788264      0.500447      0.719958
O     -1.10955      2.99604      4.82044         1.477094      1.477658      0.792845
