
# total energy =    -71.73796205

CRYSTAL
PRIMVEC
 4.924343622 -0.000321175 0.000231036
 -2.460336392 4.267693122 0.000577087
 -0.002269993 0.002499907 5.434452305
PRIMCOORD
9 1 
Si     -0.17192      4.24196      5.37268         1.601679     -1.022748     -0.903699
Si     -1.15631      2.04379      3.63105         1.054031     -0.731688     -1.064786
Si      1.34650      2.22885      1.87284        -0.271138      0.205685     -1.618225
O      1.51077      1.04130      0.71675        -2.469399      3.459995      2.213052
O      0.44003      1.80661      3.16011        -0.977568      0.079531     -0.305968
O      3.32183      0.62073      4.26505        -0.387621      0.023932      0.087311
O      0.66108      3.52863      1.11120         1.504668     -1.675067      0.951518
O      2.84671      2.58212      2.39224        -0.047726     -0.509039     -0.077000
O     -1.22253      3.26648      4.64648         0.028159      0.167335      0.759752
