
# total energy =    -71.64177594

CRYSTAL
PRIMVEC
 4.854245339 -0.000316603 0.000227747
 -2.411952584 4.159523947 0.000561804
 -0.064519213 -0.075758191 5.339993475
PRIMCOORD
9 1 
Si      2.27235     -0.02839      5.26783        -1.458084     -1.370052      2.952661
Si     -1.12721      1.84711      3.55877         1.631738      1.898167      0.233494
Si      1.35323      2.19788      1.75618        -0.287390     -0.472747      2.276401
O      1.38003      1.29062      0.46242         1.169298     -2.340917     -1.273520
O      0.36898      1.59537      2.95584         0.419302      0.087427     -0.416848
O      3.25677      0.44212      4.13310         0.194277     -0.644420     -0.527430
O      0.70122      3.50523      1.23281        -1.034806      3.894208     -1.413357
O      2.81189      2.51280      2.41032        -0.507294     -0.490474     -0.233827
O     -1.12143      2.91313      4.84487        -0.126040     -0.564143     -1.571152
