
# total energy =    -71.72596775

CRYSTAL
PRIMVEC
 4.925319730 -0.000321239 0.000231082
 -2.461614806 4.267086855 0.000576928
 -0.000695528 0.000862724 5.434618855
PRIMCOORD
9 1 
Si     -0.09071      4.22520      0.00434        -2.071094      0.253305     -1.810637
Si     -1.13470      1.96943      3.58461        -0.684471      1.334850      1.243165
Si      1.33986      2.28671      1.87917         0.823899     -1.575927     -2.380654
O      1.41374      1.08200      0.67897        -0.138201      1.695611      1.054208
O      0.36200      1.83802      3.03668        -0.212338     -0.986574      0.733591
O      3.31343      0.52732      4.18674        -0.188935      0.358224      0.755395
O      0.70814      3.60845      1.23261         0.730497      0.115987     -0.253601
O      2.80813      2.60643      2.44107         0.323961     -0.679940     -0.122346
O     -1.21103      3.23037      4.67175         1.432411     -0.560977      0.799778
