
# total energy =    -71.76683382

CRYSTAL
PRIMVEC
 4.906015055 -0.000319980 0.000230176
 -2.444843501 4.223290249 0.000570608
 -0.026594538 -0.043636832 5.403067998
PRIMCOORD
9 1 
Si     -0.13275      4.10689      5.32603         0.708949      2.893136      2.523528
Si      3.72787      1.88347      3.62259        -0.045143      1.157732     -0.907178
Si      1.31728      2.27645      1.83123         0.805359     -0.354109      0.366943
O      1.60693      1.24569      0.62690        -0.439714     -1.107739     -1.057266
O      0.27069      1.66564      2.94593         0.981049      0.220497     -0.489520
O      3.31796      0.42839      4.18103        -0.131823      0.379055     -0.348064
O      0.80047      3.64352      1.16571        -0.070319     -0.169598      0.044483
O      2.77432      2.63258      2.51501        -0.714839     -1.003315      0.211685
O     -1.14025      3.08138      4.74822        -1.086917     -1.986831     -0.344496
