
# total energy =    -71.62887446

CRYSTAL
PRIMVEC
 4.900296879 -0.000319607 0.000229908
 -2.442111743 4.217361594 0.000569774
 -0.029380888 -0.045186132 5.396952136
PRIMCOORD
9 1 
Si      2.31299      0.01048      0.00122         1.032216     -2.820863     -2.533333
Si      3.68571      1.90079      3.55927         2.100520     -0.453197      1.777353
Si      1.34185      2.28075      1.87252        -0.017707     -0.861177     -1.133178
O      1.58402      1.21883      0.60868        -2.027570      2.269597      1.486628
O      0.33361      1.67079      2.99904         0.227501      0.258803     -0.417855
O      3.31627      0.36483      4.11754        -0.957198      1.592373      0.357393
O      0.78425      3.59523      1.16483         0.114292      0.363235      0.313902
O      2.85681      2.60079      2.38248        -1.002325     -0.377941     -0.038777
O     -1.18428      3.02644      4.77410         0.555130      0.023969      0.160259
