
# total energy =    -71.69430506

CRYSTAL
PRIMVEC
 4.899087132 -0.000319528 0.000229851
 -2.441398070 4.216103149 0.000569604
 -0.030251205 -0.045590199 5.395616700
PRIMCOORD
9 1 
Si      2.28710     -0.03353      5.38991         0.485965     -1.987634     -1.397835
Si      3.70577      1.89931      3.53365         1.662779     -0.338331      3.680519
Si      1.34615      2.27766      1.86525         0.090552     -1.160690     -0.600594
O      1.54118      1.22851      0.60493        -1.201425      1.083928      0.996696
O      0.33097      1.67740      3.01669         1.211774      0.224974     -0.887181
O      3.28209      0.38057      4.12050        -0.415932      1.691376     -0.014891
O      0.78515      3.58269      1.17615        -0.218586      1.193020     -0.072119
O      2.87670      2.57224      2.38186        -1.877882      0.111441     -0.846041
O     -1.17976      3.03266      4.80816         0.269644     -0.829718     -0.853449
