
# total energy =    -71.65836125

CRYSTAL
PRIMVEC
 4.913586330 -0.000320474 0.000230531
 -2.448877916 4.232320374 0.000571884
 -0.024311504 -0.040093800 5.411171230
PRIMCOORD
9 1 
Si      2.37898      0.03102      0.01171         0.974405      0.325841     -0.468930
Si     -1.08387      1.99467      3.60604        -1.421573     -1.686948      2.897405
Si      1.33201      2.22065      1.71990        -0.600255      0.347187      1.832466
O      1.31706      1.15613      0.48052         0.453683      0.847818      1.116374
O      0.20797      1.64256      2.81304         2.318102      0.174562     -1.521866
O      3.26723      0.52942      4.21760         0.810908      1.026112     -0.233595
O      0.86524      3.68860      1.20492         0.292804      0.045774      0.393978
O      2.65533      2.45902      2.67233        -1.714924      0.806988     -2.462597
O     -0.95274      3.00051      4.91301        -1.112149     -1.842622     -1.587551
