
# total energy =    -71.84072754

CRYSTAL
PRIMVEC
 4.873566756 -0.000317863 0.000228654
 -2.424784070 4.185770239 0.000565461
 -0.049763522 -0.059849569 5.366154743
PRIMCOORD
9 1 
Si     -0.13871      4.12135      5.34815        -1.735209     -0.259431     -0.895689
Si      3.69190      1.88012      3.55254         2.362977      0.699179     -0.784088
Si      1.34206      2.24319      1.81813        -1.602116     -0.114449     -0.647506
O      1.39414      1.09499      0.68213        -0.762211      0.302201     -0.725102
O      0.39065      1.69398      3.03489        -0.301330      0.420931     -0.350299
O      3.27803      0.49520      4.19252        -0.640414     -0.818167      0.097875
O      0.84936      3.67588      1.15851         0.902300     -1.843381      1.255102
O      2.84337      2.39185      2.28620         0.943190      0.405049      0.584968
O     -1.19790      3.04897      4.64170         0.841609      1.178257      1.482138
