
# total energy =    -71.62977033

CRYSTAL
PRIMVEC
 4.883713917 -0.000318525 0.000229130
 -2.431574460 4.200122499 0.000567471
 -0.042607320 -0.051577983 5.379235742
PRIMCOORD
9 1 
Si      2.27857      0.06428      0.06481        -1.366485     -1.207625     -1.428385
Si     -1.05386      1.87801      3.54373         0.321102      1.376207     -0.224509
Si      1.38079      2.23202      1.72120        -1.485363      0.896073      1.437195
O      1.08242      1.11333      0.62527         2.084848     -1.826732     -1.563367
O      0.49176      1.73658      3.00667        -1.245632     -0.030408      0.417698
O      3.12104      0.60893      4.19997        -0.403312     -1.273078      0.540166
O      0.85873      3.68443      1.20024        -0.182195      0.400807     -0.017896
O      2.86918      2.35817      2.25768         1.828913      0.068899      0.853737
O     -1.05102      2.89816      4.82807         0.439483      1.617077     -0.030335
