
# total energy =    -71.86331501

CRYSTAL
PRIMVEC
 4.919130964 -0.000320835 0.000230791
 -2.452607823 4.245789954 0.000573895
 -0.015932423 -0.025339071 5.420595541
PRIMCOORD
9 1 
Si     -0.12570      4.17817      5.36543        -1.058639      0.983335      2.795110
Si     -1.10368      1.89008      3.61902        -0.813591      1.215050      0.746125
Si      1.35618      2.28718      1.80276         0.227877     -0.301736      0.469449
O      1.51831      1.28127      0.52495        -0.269704     -0.208568      0.327135
O      0.32243      1.65927      2.94322         0.871825     -0.063079     -0.508794
O      3.21386      0.50374      4.20809         1.861527      0.585295     -1.410196
O      0.70421      3.69214      1.28493         0.354620     -0.292455     -0.613769
O      2.78176      2.56786      2.58255        -1.251947     -0.242037     -1.400297
O     -1.13574      3.09699      4.78673         0.059217     -1.677647     -0.418564
