
# total energy =    -71.72089856

CRYSTAL
PRIMVEC
 4.925347293 -0.000321241 0.000231083
 -2.461656438 4.267074042 0.000576924
 -0.000688631 0.000795344 5.434628731
PRIMCOORD
9 1 
Si     -0.09129      4.22840      0.00925        -2.080209      0.178569     -2.211693
Si     -1.13335      1.96902      3.58503        -0.683588      1.321564      1.323328
Si      1.33750      2.28776      1.87977         0.892888     -1.450993     -2.704041
O      1.41269      1.07928      0.66904        -0.336782      2.045711      1.347811
O      0.36282      1.83417      3.03066        -0.374086     -0.997641      0.826275
O      3.30993      0.53156      4.18999        -0.151726      0.310455      0.688960
O      0.71033      3.61673      1.22562         1.030078     -0.271770      0.205711
O      2.80740      2.60099      2.44134         0.307264     -0.631407     -0.144978
O     -1.20602      3.22275      4.68088         1.423073     -0.560496      0.681326
