
# total energy =    -71.60069155

CRYSTAL
PRIMVEC
 4.915464871 -0.000320596 0.000230619
 -2.449810898 4.235342463 0.000572331
 -0.023612667 -0.038323932 5.413555959
PRIMCOORD
9 1 
Si      2.40574      0.06301      0.00818        -0.927814     -0.987620      0.952518
Si     -1.12866      1.94995      3.69389         0.170325      0.281830     -4.822867
Si      1.26278      2.25268      1.76273         1.099231      0.040932     -1.082129
O      1.26039      1.14252      0.47647         1.319163      0.542016      0.663459
O      0.20086      1.62395      2.73761        -1.712437      0.010062      2.071983
O      3.32323      0.55502      4.23993        -0.551382     -1.534383      0.439500
O      0.90950      3.75141      1.22350        -0.598029      0.147117     -0.456555
O      2.67769      2.48541      2.51896         1.089852     -0.452399      1.270084
O     -0.86383      2.90587      4.89819         0.127349      1.963197      0.986775
