
# total energy =    -71.65922666

CRYSTAL
PRIMVEC
 4.923827940 -0.000321142 0.000231012
 -2.459652178 4.267579597 0.000577100
 -0.003916998 0.001809555 5.434143248
PRIMCOORD
9 1 
Si     -0.14424      4.26319      5.38848        -1.769881      0.528871      1.548021
Si     -1.09147      2.04832      3.59928        -1.661873      0.887119      0.882095
Si      1.30672      2.23368      1.85017         1.852478     -0.439920      1.372071
O      1.39713      1.14366      0.74151         0.736290     -3.579556     -1.981907
O      0.42504      1.77830      3.15296         0.371768      0.285843     -0.556592
O      3.26178      0.73984      4.35055         0.434406     -0.547892     -0.766465
O      0.75133      3.41884      1.01028        -0.782989      2.765679     -0.188963
O      2.85871      2.47456      2.35368         0.085725      0.052196      0.476089
O     -1.23158      3.23018      4.74900         0.751013      0.054789     -0.845611
