
# total energy =    -71.95751732

CRYSTAL
PRIMVEC
 4.893216969 -0.000319145 0.000229575
 -2.437371572 4.210500842 0.000568883
 -0.035141927 -0.047041880 5.389615883
PRIMCOORD
9 1 
Si     -0.15967      4.14361      5.35569        -1.003248      1.033370      0.458658
Si     -1.06095      1.91549      3.61381        -0.734868      0.200054     -2.466198
Si      1.36155      2.23128      1.80777        -0.011155      0.827163     -1.400526
O      1.32615      1.18469      0.55405         0.402786     -0.663671     -0.094848
O      0.45098      1.71469      3.02223        -1.290616     -0.268902      0.848445
O      3.12565      0.58320      4.11809        -0.068807     -1.813579      0.762218
O      0.76410      3.67156      1.21042         0.696999     -0.837390      0.268719
O      2.84935      2.45133      2.35854         1.303629      0.084999      0.812678
O     -1.14134      2.94413      4.81784         0.677985      1.476401      0.778966
