
# total energy =    -71.64891393

CRYSTAL
PRIMVEC
 4.885755364 -0.000318658 0.000229225
 -2.432770672 4.202720095 0.000567837
 -0.041035196 -0.050239474 5.381626150
PRIMCOORD
9 1 
Si      2.27320      0.03818      0.02273        -0.355534     -0.000153      0.830825
Si     -1.03023      1.89640      3.55968        -0.542883      0.528610      0.717850
Si      1.38383      2.22765      1.68693        -0.643085      0.517500      3.042559
O      1.09885      1.11590      0.58552         1.860133     -1.499508     -1.065011
O      0.49800      1.72852      3.03850        -0.519744      0.092880     -0.463415
O      3.06339      0.61366      4.19018         1.054288     -0.028398     -0.271574
O      0.84326      3.67806      1.23583        -0.598065      0.962892     -0.962599
O      2.87756      2.35770      2.32612         0.299095      0.338544     -0.479998
O     -1.04346      2.94432      4.86250        -0.573428     -0.881626     -1.351293
