
# total energy =    -71.62301786

CRYSTAL
PRIMVEC
 4.918994849 -0.000320826 0.000230785
 -2.453040598 4.248930625 0.000574384
 -0.013702722 -0.020171774 5.422079257
PRIMCOORD
9 1 
Si      2.27478     -0.00409      5.40210         1.084284     -1.245901     -1.515467
Si     -1.08295      1.97284      3.67256         0.095377     -1.031938     -2.012008
Si      1.41221      2.24149      1.82734        -1.908117      0.594836     -0.504725
O      1.46116      1.28214      0.49150        -0.074298      0.158919      0.891572
O      0.43039      1.64591      2.99418        -1.722379      0.415138      0.603709
O      3.28658      0.48478      4.10431        -0.871788     -0.092247      1.837160
O      0.65002      3.55330      1.19675         0.366408      0.719023     -0.108296
O      2.77129      2.60903      2.54928         1.652984     -0.455292     -0.109236
O     -1.23887      3.09854      4.80762         1.384025      0.927802      0.890338
