
# total energy =    -71.72709772

CRYSTAL
PRIMVEC
 4.871708249 -0.000317742 0.000228566
 -2.423520211 4.183029605 0.000565075
 -0.051233973 -0.061581655 5.363597939
PRIMCOORD
9 1 
Si      2.30132     -0.05536      5.33962        -1.187609     -2.124455     -1.541700
Si      3.71529      1.87813      3.53148         1.604290      0.920755      1.978028
Si      1.33439      2.22163      1.81759        -0.872017     -0.470743     -1.526762
O      1.44587      1.07693      0.62540        -2.217184      3.156170      1.713999
O      0.39946      1.69717      3.04147        -0.348192      0.101295     -0.433684
O      3.26482      0.47411      4.17752         0.388231      0.242839     -0.709255
O      0.82879      3.64096      1.16891         0.967131     -1.688998      1.104419
O      2.81074      2.41307      2.35900         0.230359      0.487099     -0.788867
O     -1.25537      3.10230      4.65556         1.407101     -0.621326      0.190780
