
# total energy =    -71.50232157

CRYSTAL
PRIMVEC
 4.861917858 -0.000317104 0.000228107
 -2.416640888 4.169792879 0.000563250
 -0.058432859 -0.069151978 5.350457702
PRIMCOORD
9 1 
Si     -0.13536      4.07079      5.28759         0.049013      1.374370     -1.708594
Si     -1.08548      1.94645      3.62257        -0.478959     -2.916406     -2.564538
Si      1.35763      2.13951      1.80753        -0.909668      1.206770     -1.921006
O      1.43299      1.18593      0.43575        -0.732000      1.643568      2.194790
O      0.40176      1.66058      3.01882        -0.424697     -0.054732     -0.266265
O      3.27355      0.46275      4.08829        -0.407056     -0.230356      0.773563
O      0.68823      3.54090      1.14232         2.090331     -1.885205      2.534079
O      2.74942      2.51421      2.48884         0.675067     -0.243125     -0.837709
O     -1.21271      3.03697      4.70393         0.147011      1.070726      1.809468
