
# total energy =    -71.56308327

CRYSTAL
PRIMVEC
 4.924838390 -0.000321207 0.000231059
 -2.460890961 4.267378166 0.000577009
 -0.001045505 0.002130284 5.434524747
PRIMCOORD
9 1 
Si     -0.14052      4.20367      5.36562         0.445270      1.440627      2.068224
Si      3.75724      2.01264      3.60687         0.911178     -0.302796     -0.024674
Si      1.38047      2.23130      1.85216        -1.615384      1.727431      1.744011
O      1.45893      1.10971      0.78201         0.526460     -2.261900     -2.748204
O      0.37736      1.84098      3.13083         0.663009     -0.314359     -0.705953
O      3.34156      0.51113      4.19567        -0.462620      1.423967      0.622047
O      0.66698      3.56625      1.23227         0.144744      0.078445     -1.456103
O      2.83320      2.63213      2.43034        -0.178655     -0.696712     -0.295610
O     -1.21062      3.30053      4.61323        -0.406655     -1.112842      0.810467
