
# total energy =    -71.75526963

CRYSTAL
PRIMVEC
 4.919002393 -0.000320827 0.000230785
 -2.452731361 4.247469003 0.000574162
 -0.014709479 -0.022560470 5.421351904
PRIMCOORD
9 1 
Si     -0.15438      4.21722      5.37673         0.157479     -0.443345      0.802199
Si     -1.09564      1.93046      3.66791         0.470039      0.422962     -2.508559
Si      1.39318      2.26419      1.81944        -0.756473     -0.186695     -0.484376
O      1.48664      1.28790      0.50020         0.128425     -0.439258      0.350752
O      0.41326      1.65314      2.95110        -2.354830     -0.110386      1.419968
O      3.25143      0.50272      4.13902        -0.125525     -0.761473      1.067603
O      0.68160      3.59736      1.26173        -0.533652      1.478901     -1.646229
O      2.75467      2.59910      2.56835         1.594704     -0.586124     -0.041501
O     -1.21181      3.09140      4.78363         1.398087      0.628073      1.021258
