
# total energy =    -71.74932325

CRYSTAL
PRIMVEC
 4.923255741 -0.000321104 0.000230985
 -2.458925832 4.266762701 0.000577002
 -0.005494809 0.000910555 5.433482697
PRIMCOORD
9 1 
Si      2.27516      0.03325      0.01664         1.537645     -1.153262     -1.998831
Si     -1.10177      2.08556      3.61252        -0.085315     -0.832626      1.307399
Si      1.35465      2.21175      1.84772        -0.759707      0.144047     -2.217415
O      1.30408      1.03451      0.67950        -1.401586      2.073671      2.457323
O      0.42111      1.77975      3.09874        -0.353490      0.403053     -0.045919
O      3.23435      0.78558      4.36686        -0.110360     -0.863990     -0.223649
O      0.81785      3.49179      0.95591         1.049615     -0.669861      2.229498
O      2.87265      2.38006      2.34772         0.065975      0.719262     -0.457906
O     -1.17488      3.20822      4.77409         0.056729      0.170416     -1.029907
