
# total energy =    -71.74993800

CRYSTAL
PRIMVEC
 4.869310377 -0.000317586 0.000228454
 -2.421772905 4.179729113 0.000564622
 -0.053076243 -0.063491021 5.360381943
PRIMCOORD
9 1 
Si     -0.12132      4.10569      5.31139        -0.592174     -0.978810      0.661435
Si     -1.10506      1.89036      3.53483        -0.848193      0.889894      2.162573
Si      1.31482      2.18901      1.79675         1.213752     -0.561826      0.235632
O      1.45263      1.13007      0.59785        -0.860002      0.789231      0.388925
O      0.40144      1.70292      3.03815         0.049795     -0.348058     -0.189378
O      3.25896      0.45570      4.14275         0.672837      0.704316     -0.374540
O      0.82472      3.56337      1.20360        -1.036903      1.423053     -1.357918
O      2.77944      2.44943      2.42418         0.002664     -0.028209     -1.001836
O     -1.28444      3.14688      4.67707         1.395878     -1.914022     -0.536555
