
# total energy =    -71.87078753

CRYSTAL
PRIMVEC
 4.919653075 -0.000320869 0.000230816
 -2.454214976 4.253461171 0.000575064
 -0.012004971 -0.014513754 5.424724570
PRIMCOORD
9 1 
Si      2.29127      0.00632      5.35368        -0.592872     -0.541263      2.391864
Si     -1.09960      1.99969      3.64183        -0.692385     -0.400729     -0.189501
Si      1.33746      2.25618      1.84699         1.226098     -0.485097      0.002140
O      1.40781      1.23373      0.58340         0.608118     -1.372455     -0.121788
O      0.41135      1.70848      3.08336        -0.123964      0.239410     -0.060218
O      3.28372      0.52907      4.22181         0.690171      1.211732     -0.994337
O      0.68993      3.50042      1.12901        -0.521753      2.406536     -0.391622
O      2.87926      2.56236      2.40310        -0.710589     -0.681601      0.396225
O     -1.18711      3.10533      4.84898         0.114073     -0.389747     -1.049234
