
# total energy =    -71.58890168

CRYSTAL
PRIMVEC
 4.863153884 -0.000317184 0.000228165
 -2.417440552 4.171460295 0.000563483
 -0.057508597 -0.068099331 5.352163328
PRIMCOORD
9 1 
Si     -0.13474      4.06013      5.29098         0.036367      2.149102     -1.272917
Si     -1.07325      1.94787      3.61869        -1.195424     -2.588426     -2.432458
Si      1.34501      2.13382      1.80196        -0.133337      1.662928     -1.150728
O      1.43229      1.19641      0.47198        -0.199508      0.245245      0.929544
O      0.40579      1.67271      3.02076        -0.525626     -0.211384      0.014836
O      3.27705      0.46239      4.08144        -0.559219     -0.220954      1.129915
O      0.70862      3.54100      1.14978         1.497127     -1.430735      1.879342
O      2.74276      2.51048      2.48689         0.831298     -0.362327     -0.681551
O     -1.23061      3.06183      4.69005         0.257823      0.707648      1.618091
