
# total energy =    -71.70673705

CRYSTAL
PRIMVEC
 4.912024056 -0.000320372 0.000230458
 -2.447958006 4.230225092 0.000571587
 -0.024623431 -0.041148779 5.409496152
PRIMCOORD
9 1 
Si      2.38286      0.00783      0.00767        -0.249422      0.347545     -1.159373
Si     -1.09598      1.96838      3.59910        -0.347464     -0.645941     -0.237726
Si      1.36207      2.20911      1.74069        -1.785164      1.936575      1.064832
O      1.38680      1.21346      0.54633         1.042872     -2.165525     -1.871410
O      0.29785      1.66604      2.81237        -2.111333     -0.190148      1.113280
O      3.27500      0.55983      4.18752        -0.279063     -1.001792      0.973211
O      0.84180      3.65816      1.20287         0.088388      0.409290     -0.081244
O      2.58263      2.47683      2.66620         2.980073      0.634590      0.178073
O     -1.05808      2.99550      4.85781         0.662718      0.647379      0.004822
