
# total energy =    -71.61719824

CRYSTAL
PRIMVEC
 4.921603443 -0.000320996 0.000230907
 -2.457051822 4.261024283 0.000576159
 -0.009897916 -0.006032913 5.429725665
PRIMCOORD
9 1 
Si     -0.13933      4.25243      0.08851         0.113349     -0.458931     -1.688109
Si     -1.13041      1.98877      3.56496        -0.025175      0.292169     -0.668954
Si      1.31049      2.25433      1.77911         1.179901     -0.797635     -0.581884
O      1.21401      0.93442      0.79884         0.138807      0.929325     -0.341269
O      0.40658      1.91738      3.01023        -1.874541     -0.996578      1.805952
O      3.21936      0.68647      4.31936        -0.225756     -0.543586      0.632222
O      0.96345      3.72415      1.23174        -1.550526      0.309100     -1.885989
O      2.83565      2.35266      2.26548         1.553564      0.029318      0.977901
O     -1.10433      3.17095      4.65090         0.703542      1.239024      1.726846
