
# total energy =    -71.68586512

CRYSTAL
PRIMVEC
 4.905113932 -0.000319921 0.000230134
 -2.444384077 4.222374903 0.000570481
 -0.026897087 -0.043805129 5.402153321
PRIMCOORD
9 1 
Si     -0.14004      4.10729      5.33420         0.643409      2.837261      1.953368
Si      3.71065      1.88435      3.63480         0.697542      0.949385     -2.409048
Si      1.32031      2.27506      1.84126         0.434538      0.200413      0.214878
O      1.61134      1.26187      0.64703        -0.204618     -2.028324     -1.970044
O      0.29297      1.66385      2.94605        -0.217366      0.230143      0.238983
O      3.33492      0.41243      4.16246        -0.793371      0.166573      0.266121
O      0.79731      3.64046      1.16099        -0.113598     -0.200179      0.100556
O      2.77723      2.64406      2.47132         0.250227     -1.198420      1.194485
O     -1.14741      3.06754      4.73463        -0.699148     -0.949888      0.391656
