
# total energy =    -71.74065951

CRYSTAL
PRIMVEC
 4.846874522 -0.000316122 0.000227401
 -2.407668444 4.149377917 0.000560358
 -0.070411428 -0.081786536 5.329824308
PRIMCOORD
9 1 
Si      2.26230      0.02473      0.03825         0.945018     -1.069051     -3.372112
Si     -1.07374      1.83085      3.50771        -1.321333     -1.419947      0.362718
Si      1.29943      2.25951      1.78005         0.906341      1.045147     -1.908307
O      1.39644      1.25296      0.46232        -1.650235      1.931887      0.864549
O      0.37591      1.54771      2.84971        -0.482651     -0.211605      0.797652
O      3.24783      0.36556      4.11914        -0.600430      0.598192      0.073077
O      0.71503      3.75295      1.28673         1.688901     -2.281159      1.979385
O      2.82353      2.45634      2.30495         0.186189     -0.133512      0.960984
O     -1.05219      2.76871      4.81788         0.344311      1.552604      0.268029
