
# total energy =    -71.60139222

CRYSTAL
PRIMVEC
 4.841655516 -0.000315782 0.000227156
 -2.404407883 4.142564734 0.000559406
 -0.074530365 -0.086149933 5.322662295
PRIMCOORD
9 1 
Si     -0.16946      4.12380      0.01999         2.144543      2.409456      0.762962
Si     -1.07367      1.78752      3.48884        -1.038314     -1.581035      0.223871
Si      1.29016      2.33743      1.75990         1.226814     -2.269391     -0.053511
O      1.33997      1.27661      0.46729        -0.049839      0.000179     -0.037737
O      0.36443      1.51001      2.81867         0.247753      0.432028      0.313076
O      3.19848      0.33868      4.11692        -0.039512      0.892823      0.120757
O      0.80910      3.82130      1.41815        -1.516985      0.022707     -2.247680
O      2.83465      2.40394      2.29528        -0.161924      0.242528      0.842334
O     -0.98942      2.75740      4.78955        -0.819230     -0.149496      0.075631
