
# total energy =    -71.51182264

CRYSTAL
PRIMVEC
 4.861075092 -0.000317049 0.000228067
 -2.416102673 4.168659793 0.000563092
 -0.059080008 -0.069887693 5.349289880
PRIMCOORD
9 1 
Si     -0.13573      4.08036      5.28246         0.212513      0.672726     -1.407050
Si     -1.09462      1.94051      3.62075        -0.023693     -2.664575     -2.226963
Si      1.36462      2.14545      1.80808        -1.333327      0.939000     -2.081496
O      1.43142      1.18341      0.41776        -0.952774      2.246971      2.709215
O      0.39774      1.65225      3.01683        -0.280042      0.024377     -0.451907
O      3.26990      0.46227      4.09530        -0.235929     -0.213004      0.470174
O      0.68072      3.53529      1.14472         2.068334     -1.674940      2.400478
O      2.75592      2.51589      2.48766         0.516402     -0.182112     -0.914274
O     -1.20033      3.02344      4.71854         0.056818      0.854236      1.511215
