
# total energy =    -71.78403467

CRYSTAL
PRIMVEC
 4.925433784 -0.000321246 0.000231087
 -2.461787146 4.267039677 0.000576912
 -0.000667160 0.000600465 5.434661105
PRIMCOORD
9 1 
Si     -0.10064      4.24159      0.02028        -1.811141     -0.058554     -3.001496
Si     -1.13020      1.97185      3.59137        -0.566471      1.081222      1.367994
Si      1.33125      2.28749      1.87217         0.906055     -0.929867     -3.189453
O      1.40545      1.08230      0.63857        -0.864000      2.754828      1.933310
O      0.36307      1.81290      3.01200        -0.725202     -0.868407      0.951447
O      3.29518      0.55022      4.20678        -0.034268      0.172050      0.412717
O      0.72675      3.64638      1.20106         1.715725     -1.273495      1.387566
O      2.80622      2.57584      2.44153         0.211831     -0.401277     -0.178917
O     -1.17765      3.18895      4.72092         1.145293     -0.507547      0.289913
