
# total energy =    -71.52205986

CRYSTAL
PRIMVEC
 4.862333425 -0.000317131 0.000228127
 -2.416908206 4.170352828 0.000563329
 -0.058118764 -0.068793941 5.351032531
PRIMCOORD
9 1 
Si     -0.13515      4.06663      5.28928         0.000058      1.690143     -1.668029
Si     -1.08113      1.94791      3.62217        -0.716256     -2.903682     -2.616200
Si      1.35363      2.13713      1.80624        -0.667420      1.356317     -1.737670
O      1.43307      1.18877      0.44682        -0.577720      1.230578      1.811287
O      0.40340      1.66471      3.01955        -0.473397     -0.107057     -0.147368
O      3.27502      0.46277      4.08544        -0.471191     -0.233402      0.918535
O      0.69388      3.54201      1.14340         1.970946     -1.827184      2.399262
O      2.74675      2.51315      2.48865         0.734683     -0.284714     -0.776624
O     -1.21880      3.04467      4.69822         0.196307      1.034011      1.821834
