
# total energy =    -71.64854618

CRYSTAL
PRIMVEC
 4.864758085 -0.000317289 0.000228240
 -2.418506507 4.173628816 0.000563785
 -0.056348459 -0.066801507 5.354349980
PRIMCOORD
9 1 
Si     -0.13361      4.05614      5.29007         0.397462      2.432147      0.222355
Si     -1.06310      1.93794      3.60232        -2.091259     -1.245961     -1.408921
Si      1.32788      2.13433      1.78985         0.817230      2.104026      0.682229
O      1.43013      1.21081      0.52650         0.485828     -1.884538     -1.232947
O      0.40687      1.68688      3.02344        -0.356316     -0.403736      0.201939
O      3.27697      0.46004      4.08180        -0.546461     -0.124981      1.310470
O      0.74714      3.53042      1.17401         0.014566      0.179055      0.078524
O      2.74085      2.50226      2.47861         0.907930     -0.498014     -0.480837
O     -1.25227      3.09966      4.68420         0.372245     -0.560724      0.635413
