
# total energy =    -71.82532928

CRYSTAL
PRIMVEC
 4.922986406 -0.000321087 0.000230972
 -2.458597046 4.266404089 0.000576959
 -0.006009751 0.000527760 5.433216404
PRIMCOORD
9 1 
Si      2.26472      0.04139      0.01988         2.342566     -1.544967     -1.232663
Si     -1.11503      2.09268      3.63900         0.859404     -1.608448     -1.089256
Si      1.36725      2.20634      1.82562        -1.074167      0.116373     -1.036494
O      1.25819      1.01774      0.69285        -0.814732      1.340449      1.635617
O      0.42356      1.78756      3.07455        -1.019412      0.439729      0.509150
O      3.23006      0.78803      4.35913        -0.556050     -1.335407      0.445652
O      0.86265      3.50332      0.98828        -0.318435      0.627440      0.603681
O      2.87506      2.36375      2.33841         0.492236      0.633524     -0.116813
O     -1.15439      3.19827      4.75409         0.098006      1.338379      0.298166
