
# total energy =    -71.75921804

CRYSTAL
PRIMVEC
 4.922528762 -0.000321057 0.000230951
 -2.458031957 4.265597051 0.000576855
 -0.006894046 -0.000421749 5.432648788
PRIMCOORD
9 1 
Si      2.27478      0.03794      0.01459         1.204727     -0.422528      1.320253
Si     -1.12593      2.08221      3.66551         1.239339     -1.868522     -3.074027
Si      1.37559      2.19866      1.77935        -0.866041      0.494311      1.761159
O      1.16757      1.00750      0.74313         1.274613     -1.470362     -1.149644
O      0.40419      1.81121      3.04510        -0.884595      0.390066      0.796259
O      3.21028      0.76266      4.35616        -0.195765     -0.599803      0.340255
O      0.92822      3.54387      1.05182        -1.668633      1.928828     -1.183277
O      2.89033      2.34865      2.32113         0.234263      0.359236      0.254526
O     -1.11742      3.21354      4.73011        -0.374105      1.198710      0.918912
