
# total energy =    -71.89624815

CRYSTAL
PRIMVEC
 4.919114564 -0.000320834 0.000230791
 -2.452612624 4.245998530 0.000573929
 -0.015781703 -0.025000135 5.420688976
PRIMCOORD
9 1 
Si     -0.12843      4.18250      5.36406        -0.980531      0.804750      2.733760
Si     -1.10249      1.89383      3.62594        -0.555973      1.198204      0.279963
Si      1.36082      2.28471      1.80467         0.183550     -0.330859      0.374606
O      1.51446      1.28293      0.52120        -0.188426     -0.283464      0.339883
O      0.33515      1.65872      2.94336         0.314602     -0.074897     -0.199729
O      3.21606      0.50355      4.20058         1.686862      0.433087     -1.186491
O      0.70162      3.67908      1.28457         0.180386      0.011927     -0.824747
O      2.77871      2.57275      2.58263        -0.900827     -0.339832     -1.247609
O     -1.14661      3.09805      4.78612         0.258526     -1.426896     -0.265770
