
# total energy =    -71.56274174

CRYSTAL
PRIMVEC
 4.915971013 -0.000320629 0.000230643
 -2.450137515 4.236142025 0.000572445
 -0.023211403 -0.037690493 5.414205280
PRIMCOORD
9 1 
Si      2.40881      0.06058      0.01685        -1.284239     -0.554030      0.655415
Si     -1.14604      1.92971      3.68498         0.653463      1.818084     -4.509235
Si      1.25150      2.25907      1.77070         1.073997      0.417153     -1.191598
O      1.26369      1.16212      0.50178         1.588793     -0.118852     -0.016582
O      0.18814      1.62153      2.73772        -1.469260      0.057222      1.972274
O      3.34189      0.55381      4.24407        -1.153719     -2.318739      0.918792
O      0.91242      3.77417      1.22190        -0.371770     -0.350664      0.038760
O      2.68889      2.48953      2.48006         1.121243     -0.559788      1.753064
O     -0.84331      2.89825      4.90079        -0.132014      1.606759      0.406888
