
# total energy =    -71.89835359

CRYSTAL
PRIMVEC
 4.924062131 -0.000321157 0.000231023
 -2.459991522 4.267744389 0.000577111
 -0.003110202 0.002224463 5.434339678
PRIMCOORD
9 1 
Si     -0.15454      4.25418      5.37167        -0.518671     -0.105738      1.255133
Si     -1.12364      2.04249      3.62475         0.042296      0.517660     -1.373664
Si      1.31309      2.23826      1.85817         1.782781     -1.003429      0.479550
O      1.46016      1.10606      0.73597        -0.295651     -1.110867     -0.600025
O      0.44493      1.78969      3.15807        -0.963594      0.190130     -0.017468
O      3.29466      0.69463      4.30789        -0.251211     -1.134304      0.084631
O      0.71507      3.44582      1.07187        -0.818233      2.184805     -1.009597
O      2.84975      2.53368      2.36558         0.234520     -0.384677      0.565636
O     -1.23794      3.23782      4.69065         0.805128      0.849538      0.597447
