
# total energy =    -71.72698348

CRYSTAL
PRIMVEC
 4.925259302 -0.000321235 0.000231079
 -2.461523248 4.267117457 0.000576937
 -0.000712232 0.001017697 5.434598534
PRIMCOORD
9 1 
Si     -0.09236      4.22012      5.42741        -1.959627      0.401446     -0.939580
Si      3.78716      1.97131      3.58526        -0.620470      1.298491      1.018286
Si      1.34541      2.28296      1.87566         0.626140     -1.727783     -1.545859
O      1.41571      1.09026      0.70057         0.253277      0.864120      0.352264
O      0.36010      1.84396      3.04997         0.155893     -0.929724      0.469018
O      3.32007      0.51952      4.18163        -0.268994      0.474726      0.873592
O      0.70489      3.59233      1.24587         0.131561      0.893733     -1.136780
O      2.81017      2.61605      2.44030         0.324385     -0.764471     -0.085955
O     -1.21848      3.24462      4.65498         1.402291     -0.545276      1.013897
