
# total energy =    -71.69840894

CRYSTAL
PRIMVEC
 4.923923147 -0.000321148 0.000231016
 -2.459793558 4.267679924 0.000577110
 -0.003574605 0.001994372 5.434241750
PRIMCOORD
9 1 
Si     -0.14590      4.25881      5.37761        -1.418765      0.298200      1.867768
Si     -1.10351      2.04404      3.61105        -0.927264      0.917168     -0.347174
Si      1.30509      2.23762      1.85038         2.167080     -0.958585      1.732918
O      1.42230      1.13872      0.74578         0.601098     -3.326982     -2.013459
O      0.43478      1.78226      3.15605        -0.281641      0.263722     -0.256421
O      3.27557      0.72396      4.33332         0.110670     -0.951188     -0.305010
O      0.74039      3.41858      1.04080        -1.353642      3.443897     -1.215527
O      2.85404      2.50056      2.35650         0.230811     -0.159900      0.645365
O     -1.23746      3.23161      4.72431         0.881709      0.488505     -0.138319
