
# total energy =    -71.63931256

CRYSTAL
PRIMVEC
 4.899996394 -0.000319587 0.000229894
 -2.441944730 4.217046428 0.000569731
 -0.029588861 -0.045289839 5.396617985
PRIMCOORD
9 1 
Si      2.31362      0.01223      0.00061         0.976912     -2.773918     -2.354962
Si      3.68970      1.90064      3.55146         2.046755     -0.442406      2.386779
Si      1.34290      2.28051      1.87118         0.017152     -0.974128     -1.014254
O      1.57492      1.21947      0.60648        -1.915680      2.153489      1.464655
O      0.33235      1.67221      3.00403         0.491044      0.258439     -0.545893
O      3.30840      0.36726      4.11809        -0.832660      1.646633      0.279731
O      0.78449      3.59144      1.16753         0.030526      0.572215      0.197398
O      2.86310      2.59378      2.38273        -1.301784     -0.233400     -0.288338
O     -1.18355      3.02832      4.78289         0.483331     -0.212612     -0.134051
