
# total energy =    -71.55306521

CRYSTAL
PRIMVEC
 4.862745362 -0.000317158 0.000228146
 -2.417174648 4.170908589 0.000563406
 -0.057810790 -0.068442964 5.351601091
PRIMCOORD
9 1 
Si     -0.13494      4.06305      5.29039        -0.004326      1.950683     -1.526002
Si     -1.07702      1.94838      3.62087        -0.956856     -2.795659     -2.550536
Si      1.34939      2.13522      1.80436        -0.392656      1.517001     -1.480753
O      1.43280      1.19236      0.45897        -0.394401      0.763685      1.417146
O      0.40475      1.66876      3.02018        -0.507751     -0.159510     -0.083096
O      3.27619      0.46265      4.08313        -0.517332     -0.225747      1.024330
O      0.70072      3.54201      1.14593         1.771234     -1.672242      2.199027
O      2.74452      2.51191      2.48800         0.786652     -0.323117     -0.743698
O     -1.22477      3.05298      4.69360         0.230496      0.916785      1.765219
