
# total energy =    -71.72795846

CRYSTAL
PRIMVEC
 4.843768278 -0.000315920 0.000227255
 -2.405747968 4.145281373 0.000559784
 -0.072878711 -0.084368927 5.325529710
PRIMCOORD
9 1 
Si     -0.16853      4.14241      0.03250         2.258740      0.585491     -0.887165
Si     -1.06774      1.81270      3.49589        -1.468057     -1.958864      0.092755
Si      1.28879      2.30857      1.77339         1.268127     -0.786192     -1.216181
O      1.37080      1.25688      0.46020        -1.045137      1.315907      0.683756
O      0.37041      1.52478      2.82638        -0.143013      0.083697      0.606728
O      3.22056      0.34316      4.11714        -0.282986      0.906817      0.095652
O      0.77275      3.80280      1.36941        -0.451392     -1.061957     -0.894312
O      2.82918      2.42457      2.29167         0.146564      0.065813      1.041438
O     -1.01328      2.75517      4.79762        -0.250970      0.860160      0.484513
