
# total energy =    -71.73215997

CRYSTAL
PRIMVEC
 4.919172030 -0.000320838 0.000230793
 -2.452598436 4.244965837 0.000573762
 -0.016522629 -0.026653864 5.420212264
PRIMCOORD
9 1 
Si     -0.11859      4.16484      5.38018        -1.116170      1.638453      2.110661
Si      3.80713      1.87900      3.59563        -1.625315      1.234244      2.158209
Si      1.33851      2.29613      1.79697         0.291727     -0.209814      0.676148
O      1.53149      1.27386      0.54205        -0.625281      0.058211      0.312271
O      0.28005      1.66118      2.93758         2.757951     -0.046595     -1.612312
O      3.21676      0.50855      4.22878         1.868385      0.631035     -1.596911
O      0.71773      3.74086      1.28423         0.983665     -1.398432      0.333152
O      2.78483      2.54747      2.57301        -2.058813      0.133492     -1.721982
O     -1.09293      3.08180      4.78610        -0.464255     -2.030322     -0.656036
