
# total energy =    -71.72893154

CRYSTAL
PRIMVEC
 4.845850256 -0.000316056 0.000227353
 -2.407044639 4.148009351 0.000560166
 -0.071230461 -0.082634021 5.328399316
PRIMCOORD
9 1 
Si      2.25155      0.01643      0.03950         1.609506     -0.873160     -2.755861
Si     -1.06969      1.82732      3.50350        -1.491455     -1.779924      0.237268
Si      1.29432      2.27535      1.78037         1.098382      0.583101     -1.950868
O      1.39178      1.24943      0.45928        -1.703001      2.112948      1.025846
O      0.37506      1.54041      2.84003        -0.450220     -0.178509      0.803620
O      3.23989      0.35623      4.11831        -0.503784      0.748915      0.054146
O      0.73239      3.77412      1.31251         1.035735     -2.042762      1.088705
O      2.82490      2.44586      2.29803         0.220381     -0.071176      1.015983
O     -1.03958      2.76084      4.80996         0.220414      1.487137      0.476439
