
# total energy =    -71.77275718

CRYSTAL
PRIMVEC
 4.921150592 -0.000320967 0.000230886
 -2.456150093 4.258537932 0.000575797
 -0.010349615 -0.008811604 5.428125559
PRIMCOORD
9 1 
Si     -0.15778      4.21867      0.00794         0.785104      1.789514      0.907338
Si     -1.16072      1.99990      3.52679         0.596017     -0.839222      3.687811
Si      1.32427      2.26272      1.79233        -0.573111      0.435903      1.364202
O      1.34622      1.05021      0.77943        -0.422198     -0.807079     -1.316573
O      0.37006      1.85949      3.10624         1.638863     -0.182530     -1.583646
O      3.24450      0.63950      4.33445         0.553327      1.164403     -1.217404
O      0.85162      3.70626      1.19657         0.047288     -1.079997     -0.027092
O      2.86756      2.37956      2.30371        -0.996833      0.980944     -0.849645
O     -1.07037      3.14803      4.73078        -1.608612     -1.480944     -0.959577
