
# total energy =    -71.84121773

CRYSTAL
PRIMVEC
 4.873862895 -0.000317883 0.000228667
 -2.424979372 4.186218788 0.000565524
 -0.049533452 -0.059559328 5.366562430
PRIMCOORD
9 1 
Si     -0.14350      4.11930      5.34792        -1.626070      0.073308     -0.516516
Si      3.69070      1.88143      3.55610         2.367585      0.580173     -1.279717
Si      1.34147      2.24651      1.81697        -1.512488     -0.035804     -0.358162
O      1.38289      1.10068      0.69173        -0.472955     -0.303138     -1.244724
O      0.38845      1.69417      3.03296        -0.258560      0.449436     -0.273568
O      3.27945      0.49757      4.19471        -0.778062     -0.923177      0.226657
O      0.85509      3.67749      1.15974         0.671613     -1.619842      1.013488
O      2.85053      2.38925      2.27446         0.916210      0.372657      0.801575
O     -1.18614      3.04152      4.64173         0.690295      1.400526      1.649342
