
# total energy =    -71.79215779

CRYSTAL
PRIMVEC
 4.847886111 -0.000316188 0.000227449
 -2.408274014 4.150748477 0.000560552
 -0.069599120 -0.080951545 5.331236993
PRIMCOORD
9 1 
Si      2.27434      0.03159      0.03241         0.248822     -0.962191     -3.550201
Si     -1.07959      1.83244      3.51240        -1.041632     -0.935367      0.487336
Si      1.30579      2.24509      1.77713         0.631002      1.345706     -1.528986
O      1.39716      1.26107      0.46737        -1.329287      1.314340      0.471933
O      0.37562      1.55451      2.86132        -0.391435     -0.182398      0.673439
O      3.25431      0.37632      4.12014        -0.691416      0.385532      0.107996
O      0.70170      3.72631      1.26566         2.067591     -2.245242      2.522988
O      2.82260      2.46649      2.31419         0.123464     -0.200980      0.868656
O     -1.06397      2.78029      4.82641         0.403695      1.463710     -0.034655
