
# total energy =    -71.73278634

CRYSTAL
PRIMVEC
 4.922181574 -0.000321034 0.000230934
 -2.457668139 4.264359846 0.000576671
 -0.007914902 -0.001936362 5.431868060
PRIMCOORD
9 1 
Si      2.30984      0.02467      0.03425        -0.502203      0.182628      1.871016
Si     -1.11613      2.03695      3.64243        -0.130148      0.202104     -0.267513
Si      1.36687      2.20084      1.75786        -0.774054      0.931104      1.601122
O      1.10737      0.95424      0.76786         2.019231     -0.393358     -0.819310
O      0.35752      1.85058      3.03585         1.195106      0.023997     -0.194178
O      3.18590      0.71839      4.35917         1.094174      1.244338     -0.966251
O      0.95005      3.64648      1.09077        -0.677408     -0.427928     -0.039656
O      2.91127      2.34389      2.30763        -1.089049      0.162038     -0.186195
O     -1.09178      3.25891      4.72467        -1.144338     -1.943660     -1.027300
