
# total energy =    -71.68244282

CRYSTAL
PRIMVEC
 4.918723371 -0.000320809 0.000230772
 -2.452343003 4.241782859 0.000573257
 -0.018942689 -0.031325995 5.418347996
PRIMCOORD
9 1 
Si     -0.11465      4.23124      0.05706         0.948015     -0.136546     -1.405739
Si      3.72437      1.90311      3.57345         1.418545     -0.177022     -1.314983
Si      1.27744      2.31958      1.79721         0.257531     -0.565863     -1.029957
O      1.50925      1.24292      0.60525        -0.930981     -0.194130     -0.993346
O      0.28447      1.66362      2.80804        -2.770121     -0.591793      1.968455
O      3.31451      0.50743      4.24634        -0.838485     -0.800786      0.624701
O      0.85538      3.78835      1.31775        -1.003731      0.249584     -1.330745
O      2.69370      2.48752      2.44669         2.635294      0.215469      1.863810
O     -0.94343      2.92870      4.77827         0.267156      1.978040      1.602542
