
# total energy =    -71.88565372

CRYSTAL
PRIMVEC
 4.919044230 -0.000320830 0.000230787
 -2.452658466 4.246838402 0.000574063
 -0.015169481 -0.023614194 5.421063162
PRIMCOORD
9 1 
Si     -0.14230      4.20203      5.36739        -0.403831      0.079985      1.818385
Si     -1.09887      1.91283      3.65284         0.226526      0.917417     -1.588867
Si      1.37970      2.27367      1.81321        -0.210696     -0.337886     -0.095972
O      1.49840      1.28745      0.50813         0.068322     -0.485893      0.298550
O      0.38481      1.65597      2.94469        -1.567370     -0.131388      0.960128
O      3.23359      0.50416      4.16531         0.645392     -0.388977      0.139420
O      0.69136      3.62877      1.27685        -0.376963      1.107245     -1.539421
O      2.76326      2.58981      2.57656         0.618069     -0.583505     -0.518190
O     -1.18731      3.09543      4.78315         1.028302     -0.221957      0.492884
