
# total energy =    -71.72931221

CRYSTAL
PRIMVEC
 4.925290303 -0.000321237 0.000231080
 -2.461570282 4.267101352 0.000576933
 -0.000703314 0.000937017 5.434608710
PRIMCOORD
9 1 
Si     -0.09153      4.22303      5.43342        -2.035056      0.320745     -1.391523
Si     -1.13629      1.97030      3.58462        -0.660834      1.324766      1.159748
Si      1.34251      2.28512      1.87776         0.737329     -1.678615     -1.995136
O      1.41471      1.08573      0.68955         0.059337      1.301305      0.752288
O      0.36106      1.84128      3.04315        -0.024755     -0.961343      0.580425
O      3.31682      0.52329      4.18395        -0.221589      0.413335      0.790107
O      0.70638      3.60023      1.23944         0.430422      0.508871     -0.667050
O      2.80905      2.61145      2.44072         0.331377     -0.727106     -0.108844
O     -1.21519      3.23766      4.66310         1.425754     -0.549966      0.888709
