
# total energy =    -71.93997190

CRYSTAL
PRIMVEC
 4.909740688 -0.000320223 0.000230351
 -2.446811813 4.227375883 0.000571179
 -0.025420492 -0.042538437 5.406973996
PRIMCOORD
9 1 
Si     -0.09278      4.17042      5.37208        -0.738868     -1.203823     -0.238238
Si     -1.12418      1.91679      3.59100        -0.055257      0.600389      0.603424
Si      1.34155      2.24979      1.79262         0.063043     -0.563682     -0.726351
O      1.52167      1.18766      0.54714        -1.052857      1.403691      1.193734
O      0.29291      1.67975      2.87149        -0.626582     -0.378499      0.240580
O      3.27342      0.53368      4.20297         0.420600     -1.008508     -0.287120
O      0.81933      3.64529      1.19376         0.100948      0.195209     -0.246708
O      2.65493      2.53858      2.64997         0.365608      0.194578     -1.247173
O     -1.14274      3.02361      4.79021         1.540869      0.747906      0.710209
