
# total energy =    -71.60751859

CRYSTAL
PRIMVEC
 4.917651121 -0.000320739 0.000230722
 -2.451608455 4.238871508 0.000572819
 -0.021241356 -0.034837424 5.416373520
PRIMCOORD
9 1 
Si      2.36829      0.03930      0.05969         0.193686     -0.358297     -0.691089
Si      3.72537      1.92526      3.55665         0.391981     -0.695455      3.890250
Si      1.24619      2.29888      1.77198         0.449250     -0.292863      0.822161
O      1.37886      1.20865      0.57554         0.059820     -0.066425     -0.289026
O      0.14783      1.62993      2.80076         2.962511      0.318245     -1.390657
O      3.34229      0.46108      4.28667         0.050722      1.973409     -1.186872
O      0.91142      3.80087      1.25672        -0.343071     -0.544815      0.527307
O      2.75224      2.47280      2.44883        -2.166512      0.505779     -0.473153
O     -0.82148      2.92587      4.88469        -1.599511     -0.820811     -1.221644
