
# total energy =    -71.67754845

CRYSTAL
PRIMVEC
 4.853765266 -0.000316572 0.000227725
 -2.411674186 4.158870427 0.000561711
 -0.064900802 -0.076148150 5.339346335
PRIMCOORD
9 1 
Si      2.26944     -0.02792      5.27410        -1.427552     -1.310048      2.592345
Si     -1.12505      1.84324      3.55446         1.495081      1.922123      0.243386
Si      1.34994      2.19972      1.75435        -0.255146     -0.145197      2.428192
O      1.37890      1.29596      0.46871         1.178982     -2.578242     -1.598456
O      0.36856      1.59203      2.94893         0.413877      0.093630     -0.385775
O      3.25810      0.43900      4.13229         0.030093     -0.684986     -0.394143
O      0.70043      3.51653      1.23459        -0.876089      3.597888     -1.187274
O      2.81392      2.51094      2.40209        -0.487792     -0.513770     -0.136381
O     -1.11752      2.90202      4.84795        -0.057492     -0.392904     -1.545339
