
# total energy =    -71.77981919

CRYSTAL
PRIMVEC
 4.922648629 -0.000321065 0.000230956
 -2.458178320 4.265855064 0.000576890
 -0.006641961 -0.000110592 5.432824838
PRIMCOORD
9 1 
Si      2.26877      0.04055      0.01570         1.640547     -0.764131      0.609111
Si     -1.12495      2.08875      3.66276         1.293946     -2.098529     -3.101225
Si      1.37493      2.20050      1.79139        -0.970189      0.270276      1.114503
O      1.19203      1.01176      0.72898         0.798878     -0.879968     -0.501060
O      0.41311      1.80317      3.05117        -1.101827      0.434186      0.815544
O      3.21753      0.77347      4.35522        -0.479474     -1.064796      0.572830
O      0.91347      3.52726      1.03573        -1.515154      1.880343     -0.936350
O      2.88446      2.35155      2.32553         0.460032      0.436463      0.241973
O     -1.12776      3.20393      4.73371        -0.141400      1.747980      1.180753
