
# total energy =    -71.71862336

CRYSTAL
PRIMVEC
 4.880989236 -0.000318347 0.000229002
 -2.429980335 4.196316061 0.000566928
 -0.044771921 -0.053610056 5.375773902
PRIMCOORD
9 1 
Si      2.25370      0.06426      0.07871         0.583192     -2.222675     -2.893588
Si     -1.08325      1.88533      3.52051        -0.670578      0.101022      1.256704
Si      1.34185      2.25957      1.79726         0.488585     -0.034211     -2.076910
O      1.15166      1.04683      0.62549        -0.102493      2.053549      1.308492
O      0.42735      1.74287      2.98491         0.025620     -0.486716      0.680834
O      3.18720      0.54886      4.23295        -0.236887      0.162648     -0.480661
O      0.87811      3.70186      1.15850         0.447420     -1.028363      1.265227
O      2.93104      2.36197      2.19974        -0.643785      0.004059      0.669275
O     -1.04288      2.91025      4.77760         0.124345      1.449864      0.264020
