
# total energy =    -71.87200710

CRYSTAL
PRIMVEC
 4.920115654 -0.000320899 0.000230837
 -2.454776354 4.255335757 0.000575342
 -0.011497872 -0.012575265 5.425921510
PRIMCOORD
9 1 
Si      2.29988     -0.00202      5.36539        -0.667225     -1.009998      1.321554
Si     -1.14245      1.98535      3.64376         1.076052      0.784525     -3.179477
Si      1.31922      2.27240      1.85964         1.212541     -0.869906     -1.827684
O      1.41703      1.14807      0.63192        -0.564887      0.429378      0.498505
O      0.43155      1.76003      3.08319        -1.643620     -0.105130      0.889779
O      3.29220      0.62457      4.25770        -0.623624     -1.886828      0.134726
O      0.72661      3.56949      1.13963        -0.027538      0.885097     -0.254823
O      2.86602      2.50563      2.33033         0.517954     -0.392570      1.448242
O     -1.15985      3.06353      4.79008         0.725732      2.188884      0.978601
