
# total energy =    -71.55339237

CRYSTAL
PRIMVEC
 4.902391725 -0.000319743 0.000230006
 -2.443128602 4.219570035 0.000570085
 -0.028099903 -0.044478256 5.399279394
PRIMCOORD
9 1 
Si     -0.15412      4.15044      5.38162         0.255226     -0.304968     -1.362189
Si      3.67768      1.89715      3.61826         1.857379     -0.531229     -2.634870
Si      1.33368      2.27685      1.86967        -0.184210      0.140205     -1.229321
O      1.61531      1.24571      0.64173        -1.093883     -0.272280     -0.767124
O      0.33753      1.66472      2.96321        -1.318231      0.144295      0.781944
O      3.35145      0.37166      4.12260        -1.511525      0.804607      0.845192
O      0.78628      3.62216      1.15361         0.272437     -0.483598      0.584665
O      2.80643      2.63943      2.39005         1.002782     -1.049153      1.796110
O     -1.17845      3.02215      4.72510         0.722382      1.553660      1.965533
