
# total energy =    -71.64002898

CRYSTAL
PRIMVEC
 4.924505671 -0.000321186 0.000231043
 -2.460507094 4.267603952 0.000577064
 -0.001806968 0.002520395 5.434489757
PRIMCOORD
9 1 
Si     -0.17234      4.22841      5.36929         1.870270     -0.194812     -0.459486
Si     -1.16797      2.04037      3.62574         1.352782     -1.061461     -0.457852
Si      1.36605      2.22352      1.87116        -1.294869      0.733290     -1.343236
O      1.51179      1.04050      0.72907        -2.159084      3.150922      1.662480
O      0.42391      1.81744      3.15812        -0.518160      0.033288     -0.605154
O      3.33226      0.57595      4.24202        -0.370842      0.853732      0.054435
O      0.64530      3.56150      1.14187         1.924846     -2.337520      1.075680
O      2.84495      2.60312      2.40785        -0.197148     -0.485114     -0.343780
O     -1.21169      3.28669      4.63148        -0.573549     -0.707048      0.434927
