
# total energy =    -71.89837444

CRYSTAL
PRIMVEC
 4.920464494 -0.000320922 0.000230854
 -2.455210284 4.256404355 0.000575495
 -0.011105748 -0.011380403 5.426652632
PRIMCOORD
9 1 
Si     -0.15770      4.23857      5.39038        -0.314307     -0.371355     -0.346717
Si      3.76047      1.98257      3.61496         1.439507      1.209784     -2.187453
Si      1.32169      2.27279      1.85053         0.160235     -0.513796     -1.805014
O      1.41505      1.09755      0.66974        -1.313329      1.472750      0.774178
O      0.41601      1.79112      3.09813        -0.829346      0.001971     -0.007083
O      3.29022      0.65755      4.27849        -1.122784     -2.535493      0.626514
O      0.74692      3.63513      1.13974         1.126998     -1.169393      1.013010
O      2.86447      2.46152      2.31045         0.479407      0.071788      1.157252
O     -1.13035      3.07232      4.76637         0.350768      1.843868      0.798402
