
# total energy =    -71.70464999

CRYSTAL
PRIMVEC
 4.923696296 -0.000321133 0.000231005
 -2.459466523 4.267384962 0.000577077
 -0.004377470 0.001553822 5.433975175
PRIMCOORD
9 1 
Si      2.30899      0.00422      5.40917        -1.747421      0.780818      0.270378
Si     -1.08355      2.05805      3.58838        -2.114437      0.505395      2.370089
Si      1.31740      2.22651      1.85554         1.023411      0.070731     -0.418800
O      1.36935      1.12157      0.72033         0.306105     -2.034391     -0.554451
O      0.41556      1.77539      3.14402         0.937640      0.292976     -0.806557
O      3.24722      0.75661      4.36689         0.676737     -0.165795     -1.155202
O      0.76063      3.44050      0.96964         0.709726      0.594042      1.857187
O      2.86539      2.44052      2.35350        -0.199274      0.367027      0.011940
O     -1.21768      3.22836      4.77431         0.434922     -0.437724     -1.582809
