
# total energy =    -71.75227486

CRYSTAL
PRIMVEC
 4.916730380 -0.000320679 0.000230679
 -2.450767913 4.237294606 0.000572603
 -0.022456560 -0.036577131 5.415157295
PRIMCOORD
9 1 
Si      2.40022      0.05191      0.03570        -1.221089      0.000918     -0.011014
Si      3.75049      1.91728      3.63078         0.044515      1.529246     -0.551643
Si      1.24477      2.27291      1.77186         0.522500      0.477898     -0.166225
O      1.29658      1.18865      0.53895         1.279795     -0.532385     -0.443357
O      0.14905      1.62003      2.76829         1.302814      0.381830     -0.099832
O      3.35058      0.51545      4.26438        -0.686745     -0.329254      0.014631
O      0.91123      3.80021      1.22281         0.125993     -1.101994      1.043675
O      2.72283      2.48593      2.45199        -0.235530     -0.361520      1.254359
O     -0.81735      2.91173      4.90837        -1.122444     -0.084498     -1.039606
