
# total energy =    -71.88227667

CRYSTAL
PRIMVEC
 4.920050133 -0.000320895 0.000230834
 -2.454696317 4.255110755 0.000575309
 -0.011569900 -0.012815008 5.425772608
PRIMCOORD
9 1 
Si      2.29978      0.00022      5.36137        -0.741742     -1.048065      1.666836
Si     -1.13767      1.98684      3.64634         0.908735      0.593881     -3.030451
Si      1.31970      2.27153      1.85949         1.373634     -0.937066     -1.650175
O      1.41598      1.15955      0.62545        -0.383180      0.150584      0.369266
O      0.43193      1.75364      3.08150        -1.645829     -0.099323      0.963145
O      3.29109      0.61392      4.25418        -0.412149     -1.484460     -0.052314
O      0.72307      3.55689      1.13975        -0.236594      1.292094     -0.496809
O      2.86735      2.51394      2.33687         0.426004     -0.467162      1.408699
O     -1.16452      3.06581      4.79669         0.723545      2.002786      0.846985
