
# total energy =    -71.71080744

CRYSTAL
PRIMVEC
 4.918992758 -0.000320826 0.000230785
 -2.452764023 4.247678558 0.000574194
 -0.014558190 -0.022210456 5.421450782
PRIMCOORD
9 1 
Si     -0.15840      4.22206      5.38056         0.330621     -0.616773      0.444989
Si     -1.09427      1.93672      3.67133         0.498970      0.189672     -2.661888
Si      1.39724      2.26088      1.82124        -0.970412     -0.106528     -0.591604
O      1.48287      1.28750      0.49795         0.119777     -0.374109      0.431495
O      0.42007      1.65205      2.95485        -2.461940     -0.075750      1.441867
O      3.25742      0.50140      4.13131        -0.312781     -0.789470      1.270412
O      0.67772      3.58860      1.25471        -0.514320      1.489080     -1.545344
O      2.75348      2.60148      2.56545         1.826131     -0.567546      0.050003
O     -1.21839      3.09060      4.78489         1.465742      0.838617      1.135712
