
# total energy =    -71.66571848

CRYSTAL
PRIMVEC
 4.890544587 -0.000318971 0.000229450
 -2.435744837 4.207917026 0.000568540
 -0.037387088 -0.047881605 5.386852953
PRIMCOORD
9 1 
Si     -0.19473      4.15394      5.36656         1.026405     -0.052868     -0.281856
Si     -1.02567      1.93675      3.62559        -1.188964     -1.912444     -2.675660
Si      1.36541      2.23042      1.75336         0.341135      0.039807      0.024521
O      1.25739      1.09265      0.49848        -0.791105      2.462136      2.285753
O      0.48193      1.71968      3.04381        -0.631726     -0.023820     -0.262782
O      3.06456      0.62159      4.13900         0.803066     -1.241011      0.426832
O      0.77626      3.70737      1.23054         0.680855     -1.387096     -0.091855
O      2.87946      2.40058      2.38689        -0.481210      0.479307     -1.004525
O     -1.09884      2.93232      4.81612         0.208397      1.614094      1.575221
