
# total energy =    -71.74925822

CRYSTAL
PRIMVEC
 4.907734999 -0.000320092 0.000230257
 -2.445774968 4.225085506 0.000570856
 -0.026077758 -0.043275233 5.404821869
PRIMCOORD
9 1 
Si     -0.11327      4.12986      5.33247        -0.279033      0.718053      1.913921
Si      3.75964      1.89168      3.59503        -1.060075      0.704214      2.019388
Si      1.31933      2.27429      1.81417         1.148822     -1.238314      0.137844
O      1.58853      1.20231      0.57638        -1.278977      1.323530      1.171878
O      0.24824      1.67218      2.93358         2.710599     -0.016054     -1.601003
O      3.28555      0.46767      4.20873         1.050458      0.609650     -1.437940
O      0.80631      3.64664      1.17641         0.174789     -0.210745      0.131427
O      2.75156      2.59542      2.59906        -2.305264     -0.237782     -1.941532
O     -1.14185      3.07644      4.76918        -0.168945     -1.697697     -0.354605
