
# total energy =    -71.90118752

CRYSTAL
PRIMVEC
 4.924219384 -0.000321167 0.000231030
 -2.460193217 4.267736280 0.000577100
 -0.002632100 0.002411872 5.434411354
PRIMCOORD
9 1 
Si     -0.16583      4.24870      5.37223         0.776293     -0.786667     -0.127866
Si     -1.14367      2.04357      3.63135         0.715574     -0.212449     -1.473228
Si      1.33058      2.23368      1.86846         0.676863     -0.307945     -1.078703
O      1.49476      1.06326      0.72087        -1.713290      1.902454      1.333778
O      0.44619      1.79893      3.15956        -1.149712      0.117026     -0.083613
O      3.31154      0.65485      4.28290        -0.387974     -0.637382      0.147823
O      0.68256      3.49318      1.09408         0.591935     -0.233951      0.184750
O      2.84764      2.56315      2.37991         0.091163     -0.503077      0.217006
O     -1.23084      3.25177      4.66235         0.443006      0.679585      0.886118
