
# total energy =    -71.71132539

CRYSTAL
PRIMVEC
 4.880716735 -0.000318330 0.000228989
 -2.429804013 4.195935188 0.000566875
 -0.044971673 -0.053813572 5.375423465
PRIMCOORD
9 1 
Si      2.25064      0.06060      0.07485         0.907909     -2.209459     -2.720834
Si     -1.08664      1.88720      3.51931        -0.778590     -0.056620      1.444637
Si      1.33736      2.26283      1.80240         0.731060     -0.163296     -2.172492
O      1.16103      1.04307      0.62698        -0.331115      2.304825      1.464575
O      0.41898      1.74228      2.98526         0.284891     -0.502349      0.630873
O      3.19235      0.54115      4.23613        -0.161949      0.400671     -0.618048
O      0.88150      3.70102      1.15792         0.347324     -0.992413      1.186200
O      2.93855      2.36231      2.19678        -0.973747      0.020113      0.619942
O     -1.04083      2.91763      4.77377        -0.017494      1.178154      0.137066
