
# total energy =    -71.58451782

CRYSTAL
PRIMVEC
 4.919137661 -0.000320836 0.000230792
 -2.453463761 4.250426668 0.000574607
 -0.012897473 -0.017998219 5.422909083
PRIMCOORD
9 1 
Si      2.26767      0.00356      5.40499         1.000519     -0.391458     -2.163706
Si     -1.06996      1.99974      3.64689        -1.087555     -1.264727      0.858012
Si      1.40174      2.22876      1.82813        -1.425960      1.352168      0.367183
O      1.43469      1.27862      0.50738         0.120021     -0.120556      0.827677
O      0.40109      1.65012      3.05334         0.735260      0.743156     -1.069973
O      3.29797      0.46527      4.12103        -0.718260      1.184750      1.327267
O      0.63016      3.52981      1.12987         1.588458     -0.290305      1.913709
O      2.83040      2.60514      2.52443        -0.636879     -0.426736     -1.121526
O     -1.22749      3.12744      4.85332         0.445234     -0.807289     -0.962622
