
# total energy =    -71.59636698

CRYSTAL
PRIMVEC
 4.921899076 -0.000321016 0.000230921
 -2.457466770 4.262654400 0.000576404
 -0.009110165 -0.004067820 5.430809735
PRIMCOORD
9 1 
Si      2.33511      0.01165      0.09547        -1.554715     -0.186044     -2.622657
Si     -1.11052      1.98811      3.60247        -0.908954      1.715532      0.237354
Si      1.33459      2.22691      1.77391         0.193975      0.010974     -0.411059
O      1.13226      0.88356      0.76531         0.895025      2.389875      0.863093
O      0.36211      1.89930      3.01507         0.976590     -0.474745      0.027713
O      3.20114      0.71162      4.32717        -0.080024     -0.492932      0.557657
O      0.94969      3.74339      1.14389         0.610958     -2.372983      1.017308
O      2.88461      2.34676      2.28290        -0.533419      0.044156      0.047234
O     -1.10685      3.23155      4.67937         0.428271     -0.577823      0.276262
