
# total energy =    -71.65765369

CRYSTAL
PRIMVEC
 4.923859313 -0.000321144 0.000231013
 -2.459698691 4.267617815 0.000577104
 -0.003803043 0.001871923 5.434178748
PRIMCOORD
9 1 
Si     -0.14423      4.26159      5.38426        -1.682535      0.449430      1.723100
Si     -1.09502      2.04658      3.60309        -1.439044      0.923505      0.455762
Si      1.30548      2.23523      1.84967         2.005385     -0.620460      1.635773
O      1.40508      1.14420      0.74421         0.747960     -3.655701     -2.123293
O      0.42824      1.77946      3.15424         0.153944      0.281936     -0.443880
O      3.26620      0.73499      4.34514         0.331188     -0.681867     -0.593617
O      0.74836      3.41682      1.02090        -1.053324      3.131316     -0.639372
O      2.85705      2.48326      2.35428         0.145056     -0.025237      0.549853
O     -1.23404      3.23051      4.74109         0.811988      0.207511     -0.601414
