
# total energy =    -71.43380649

CRYSTAL
PRIMVEC
 4.837386519 -0.000315504 0.000226956
 -2.401706304 4.137136496 0.000558652
 -0.077831943 -0.089749024 5.317002937
PRIMCOORD
9 1 
Si     -0.14048      4.12856      0.01184         0.202971      2.298889      1.909580
Si      3.73966      1.71598      3.47998         0.815669      0.551726      0.515149
Si      1.31110      2.35522      1.73668         0.283789     -2.506858      1.212424
O      1.28353      1.30774      0.47421         1.166489     -1.344501     -1.012378
O      0.36106      1.49522      2.81105         0.401244      0.777876      0.071148
O      3.15550      0.35256      4.11925         0.396973      0.088944     -0.073767
O      0.83594      3.86111      1.44697        -1.592103     -0.138006     -2.613607
O      2.83699      2.37174      2.32295        -0.831405      0.633033      0.033011
O     -0.96744      2.75363      4.77353        -0.878076     -0.351457     -0.049961
