
# total energy =    -71.87564107

CRYSTAL
PRIMVEC
 4.909029470 -0.000320176 0.000230317
 -2.446461389 4.226534690 0.000571059
 -0.025670076 -0.042856344 5.406193579
PRIMCOORD
9 1 
Si     -0.09871      4.15735      5.35562        -0.737938     -1.081044      0.416593
Si     -1.13161      1.90606      3.58761        -0.512083      0.539728      1.804432
Si      1.33124      2.26182      1.80128         0.703750     -1.079318     -0.272643
O      1.55336      1.18426      0.55045        -1.483242      2.058383      1.763587
O      0.26958      1.67777      2.89930         1.205035     -0.218906     -0.882854
O      3.27360      0.50926      4.21023         0.936175     -0.199298     -1.054944
O      0.81356      3.64605      1.18725         0.195099     -0.027735     -0.015506
O      2.69821      2.55947      2.64047        -1.405354      0.133980     -2.126149
O     -1.14668      3.04494      4.78118         1.116328     -0.115581      0.360977
