
# total energy =    -71.82355442

CRYSTAL
PRIMVEC
 4.919145564 -0.000320836 0.000230792
 -2.452604612 4.245582297 0.000573861
 -0.016081854 -0.025674130 5.420501494
PRIMCOORD
9 1 
Si     -0.12334      4.17417      5.36776        -1.112167      1.158593      2.735826
Si     -1.10515      1.88676      3.61235        -1.059762      1.220727      1.227523
Si      1.35163      2.28955      1.80102         0.250977     -0.281312      0.531404
O      1.52199      1.27949      0.52889        -0.368340     -0.127228      0.374708
O      0.31024      1.65979      2.94276         1.431001     -0.052968     -0.864387
O      3.21279      0.50430      4.21474         1.977964      0.693814     -1.595197
O      0.70702      3.70503      1.28493         0.528484     -0.597699     -0.346349
O      2.78406      2.56283      2.58162        -1.539703     -0.144754     -1.548451
O     -1.12484      3.09492      4.78709        -0.125309     -1.848108     -0.523686
