
# total energy =    -71.62185863

CRYSTAL
PRIMVEC
 4.854723507 -0.000316634 0.000227769
 -2.412231027 4.160171836 0.000561896
 -0.064138853 -0.075367926 5.340636798
PRIMCOORD
9 1 
Si      2.27476     -0.02933      5.26257        -1.442970     -1.421138      3.201021
Si     -1.12880      1.85163      3.56316         1.733299      1.818526      0.232687
Si      1.35641      2.19588      1.75880        -0.345281     -0.752279      2.020668
O      1.38186      1.28386      0.45536         1.121769     -2.012283     -0.834674
O      0.36966      1.59877      2.96249         0.413923      0.088747     -0.494296
O      3.25555      0.44486      4.13358         0.353496     -0.573998     -0.673857
O      0.70139      3.49627      1.23017        -1.115512      4.028794     -1.512677
O      2.80956      2.51436      2.41840        -0.511588     -0.466490     -0.359652
O     -1.12542      2.92389      4.84082        -0.194182     -0.719576     -1.560925
