
# total energy =    -71.73320723

CRYSTAL
PRIMVEC
 4.918342162 -0.000320784 0.000230754
 -2.452128222 4.240539853 0.000573065
 -0.019927083 -0.032899073 5.417523535
PRIMCOORD
9 1 
Si      2.34042      0.01798      0.06815         1.430410     -0.990049     -1.316101
Si      3.71127      1.92156      3.55342         1.807661     -1.167578      1.237767
Si      1.25847      2.31826      1.78659         0.751768     -1.038802     -0.125638
O      1.46428      1.22562      0.59989        -0.857714      0.231358     -0.535209
O      0.23823      1.65120      2.79313        -1.400419     -0.202566      1.138381
O      3.33170      0.47215      4.26989        -0.407020      1.006376     -0.352706
O      0.89668      3.78418      1.30679        -1.346443      0.888666     -1.300189
O      2.71541      2.47518      2.43882         0.574886      0.374890      0.795573
O     -0.88184      2.91705      4.81992        -0.533107      0.915610      0.442601
