
# total energy =    -71.67559432

CRYSTAL
PRIMVEC
 4.917937802 -0.000320757 0.000230735
 -2.451845526 4.239490688 0.000572908
 -0.020751577 -0.034132613 5.416811040
PRIMCOORD
9 1 
Si      2.35538      0.03339      0.06551         0.873004     -0.769463     -0.980437
Si      3.71661      1.92692      3.54701         1.260277     -1.187725      3.608980
Si      1.24916      2.30813      1.77589         0.607011     -0.719444      0.718614
O      1.41301      1.21411      0.58602        -0.406656      0.188601     -0.246336
O      0.17655      1.63706      2.79960         1.575902      0.240330     -0.639107
O      3.33872      0.45706      4.28471        -0.030604      1.923545     -1.062886
O      0.90981      3.79362      1.27715        -0.786433      0.085987     -0.195780
O      2.74488      2.47110      2.44634        -1.750943      0.609112     -0.458768
O     -0.83861      2.92338      4.86306        -1.330694     -0.361472     -0.746193
