
# total energy =    -71.88022216

CRYSTAL
PRIMVEC
 4.920393106 -0.000320917 0.000230851
 -2.455120339 4.256198074 0.000575466
 -0.011187045 -0.011619107 5.426508694
PRIMCOORD
9 1 
Si     -0.15684      4.24201      5.38533        -0.373194     -0.556043     -0.085663
Si      3.76295      1.98226      3.62275         1.436136      1.243780     -2.612971
Si      1.32079      2.27316      1.85370         0.371092     -0.575347     -1.928403
O      1.41674      1.10627      0.66130        -1.222814      1.348224      0.789520
O      0.42064      1.78497      3.09462        -1.074326     -0.025276      0.215055
O      3.29187      0.65404      4.27366        -1.120660     -2.639385      0.621762
O      0.74202      3.62251      1.13909         0.930644     -0.829586      0.800129
O      2.86409      2.47051      2.31280         0.554781     -0.040619      1.269463
O     -1.13695      3.06792      4.76989         0.491871      2.079911      0.939052
