
# total energy =    -71.55350214

CRYSTAL
PRIMVEC
 4.866320781 -0.000317391 0.000228314
 -2.419589200 4.175734723 0.000564076
 -0.055239664 -0.065624684 5.356441875
PRIMCOORD
9 1 
Si     -0.13058      4.06497      5.29007         0.405357      1.881246      1.343849
Si     -1.06428      1.92100      3.57828        -2.531319      0.030012     -0.115243
Si      1.31509      2.14595      1.78136         1.504487      1.701795      2.242581
O      1.43234      1.20776      0.57003         0.757653     -3.019201     -2.500046
O      0.40464      1.69714      3.02768         0.006927     -0.520419      0.142478
O      3.27179      0.45648      4.09433        -0.257275      0.106963      1.064137
O      0.78595      3.52165      1.19928        -1.279757      1.953641     -1.505300
O      2.74748      2.48920      2.46546         0.778921     -0.528806     -0.423312
O     -1.27031      3.13210      4.68457         0.614142     -1.632689     -0.197278
