
# total energy =    -71.93178590

CRYSTAL
PRIMVEC
 4.851343578 -0.000316414 0.000227611
 -2.410281593 4.155531149 0.000561234
 -0.066827362 -0.078111780 5.336047455
PRIMCOORD
9 1 
Si      2.24801     -0.03169      5.31539        -1.007683     -0.838503     -0.235807
Si     -1.10788      1.83323      3.53428         0.455023      1.189556      0.434944
Si      1.33220      2.21058      1.75733        -0.213977      1.430028      1.505233
O      1.38306      1.29873      0.48348         0.562897     -2.111902     -1.806205
O      0.36994      1.57610      2.91178         0.233342      0.057666     -0.009583
O      3.26310      0.41710      4.12625        -0.639862     -0.516195      0.130389
O      0.69175      3.59963      1.23677         0.686835      0.745704      0.772334
O      2.81999      2.49696      2.36105        -0.280283     -0.461792      0.385123
O     -1.09780      2.84501      4.84997         0.227096      0.501122     -1.167558
