
# total energy =    -71.64003017

CRYSTAL
PRIMVEC
 4.911443795 -0.000320334 0.000230431
 -2.447641179 4.229485893 0.000571482
 -0.024800196 -0.041532934 5.408869186
PRIMCOORD
9 1 
Si      2.35967     -0.03862      5.40852        -0.541621     -0.008252     -1.026682
Si     -1.10393      1.95368      3.60056         0.010454     -0.054195     -1.031282
Si      1.36271      2.21579      1.75694        -1.832656      1.529683     -0.180610
O      1.42057      1.21482      0.55393         0.770333     -1.830813     -1.635709
O      0.31705      1.67325      2.81679        -3.075493     -0.445900      1.787147
O      3.27701      0.56455      4.18558        -0.436812     -1.615542      1.056990
O      0.83592      3.65112      1.20303        -0.035056      0.527548     -0.352822
O      2.57738      2.49011      2.65807         3.931069      0.584460      0.812038
O     -1.09105      2.99362      4.83450         1.224695      1.293016      0.564555
