
# total energy =    -71.71808534

CRYSTAL
PRIMVEC
 4.882070837 -0.000318418 0.000229053
 -2.430639142 4.197841625 0.000567145
 -0.043934322 -0.052795508 5.377168268
PRIMCOORD
9 1 
Si      2.26679      0.07151      0.08403        -0.693195     -1.827275     -2.834121
Si     -1.07144      1.87878      3.52884        -0.086074      0.794971      0.313819
Si      1.36058      2.24680      1.77014        -0.662948      0.357423     -1.130961
O      1.11533      1.07209      0.62585         1.070209      0.474869      0.167123
O      0.45956      1.74248      2.98798        -0.853281     -0.333154      0.824594
O      3.16470      0.57918      4.21825        -0.564179     -0.807668      0.157100
O      0.86754      3.69918      1.16842         0.477515     -0.745211      1.095692
O      2.89937      2.36051      2.21609         0.820428     -0.016147      0.943901
O     -1.04960      2.89074      4.79498         0.484668      2.094078      0.457870
