
# total energy =    -71.69703220

CRYSTAL
PRIMVEC
 4.923731049 -0.000321135 0.000231007
 -2.459513620 4.267439249 0.000577084
 -0.004261053 0.001618651 5.434020863
PRIMCOORD
9 1 
Si      2.31154      0.00171      5.40341        -1.814921      0.741051      0.651323
Si     -1.08449      2.05526      3.59018        -2.082856      0.628735      2.048840
Si      1.31401      2.22835      1.85399         1.252693      0.006910      0.089492
O      1.37581      1.12967      0.72680         0.467870     -2.572067     -1.042895
O      0.41723      1.77586      3.14691         0.856740      0.287006     -0.758966
O      3.25031      0.75269      4.36372         0.648957     -0.230052     -1.074143
O      0.75825      3.43369      0.97890         0.321036      1.166918      1.333431
O      2.86380      2.44882      2.35335        -0.137669      0.290210      0.132083
O     -1.22167      3.22905      4.76917         0.521995     -0.334621     -1.421571
