
# total energy =    -71.64967729

CRYSTAL
PRIMVEC
 4.890216097 -0.000318949 0.000229435
 -2.435545218 4.207585179 0.000568496
 -0.037653677 -0.048010781 5.386501423
PRIMCOORD
9 1 
Si     -0.19854      4.15557      5.36755         1.273093     -0.072731     -0.146672
Si     -1.02276      1.93695      3.62215        -1.274807     -1.858677     -2.214018
Si      1.36638      2.23074      1.74571         0.315242     -0.050487      0.290229
O      1.24748      1.08574      0.49616        -0.836318      2.637832      2.401282
O      0.48314      1.71999      3.04698        -0.445433      0.004658     -0.419014
O      3.05813      0.62198      4.14334         0.991666     -1.017724      0.292745
O      0.77987      3.70810      1.23325         0.616615     -1.315568     -0.200552
O      2.88348      2.39517      2.38920        -0.685626      0.524351     -1.182818
O     -1.09225      2.93655      4.82089         0.033893      1.117987      1.188129
