
# total energy =    -71.78900791

CRYSTAL
PRIMVEC
 4.914575402 -0.000320538 0.000230578
 -2.449381097 4.233864768 0.000572111
 -0.024082139 -0.039273580 5.412384620
PRIMCOORD
9 1 
Si      2.39030      0.05393      0.00516         0.292021     -0.946899      0.631769
Si     -1.09842      1.98461      3.65437        -1.003998     -1.612050     -0.412885
Si      1.29518      2.24033      1.73761         0.243830     -0.570612      0.464361
O      1.28162      1.12574      0.45285         0.382424      1.784484      1.915588
O      0.19255      1.62986      2.77716         0.884033      0.270588     -0.206450
O      3.28388      0.53185      4.23745         0.907922      0.916965     -0.756416
O      0.89130      3.71586      1.21676        -0.290067      0.325061     -0.192595
O      2.67708      2.46954      2.60901        -0.775540      0.181005     -0.956187
O     -0.89933      2.95691      4.91162        -0.641076     -0.338240     -0.451065
