
# total energy =    -71.59853596

CRYSTAL
PRIMVEC
 4.888913325 -0.000318864 0.000229374
 -2.434740254 4.206238268 0.000568315
 -0.038681533 -0.048576912 5.385092773
PRIMCOORD
9 1 
Si      2.22597     -0.04425      5.37101         1.742866      0.377178      0.673824
Si     -1.01569      1.93175      3.60261        -1.472618     -1.272428     -0.162110
Si      1.37124      2.23154      1.71699         0.145042     -0.311483      1.313734
O      1.20313      1.07426      0.50162        -0.394289      2.456798      2.283355
O      0.48634      1.72140      3.05606         0.120076      0.081920     -0.966754
O      3.03947      0.61878      4.16156         1.627082     -0.115643     -0.273667
O      0.79752      3.70376      1.24240         0.247519     -0.757638     -0.566805
O      2.89444      2.37694      2.39028        -1.219685      0.660762     -1.709877
O     -1.06689      2.95677      4.84450        -0.800776     -1.109165     -0.567561
