
# total energy =    -71.80255125

CRYSTAL
PRIMVEC
 4.914704976 -0.000320547 0.000230584
 -2.449439726 4.234080540 0.000572143
 -0.024033022 -0.039147836 5.412554684
PRIMCOORD
9 1 
Si      2.39275      0.05637      0.00470         0.087975     -1.046026      0.753878
Si     -1.10214      1.98085      3.66256        -0.865104     -1.514406     -1.239898
Si      1.28993      2.24256      1.74139         0.381352     -0.555641      0.225126
O      1.27728      1.12562      0.45346         0.494596      1.676017      1.785577
O      0.19428      1.62865      2.77006         0.421135      0.254860      0.194090
O      3.28868      0.53491      4.23855         0.775993      0.684680     -0.658189
O      0.89479      3.72031      1.21847        -0.382274      0.354777     -0.321136
O      2.67703      2.47203      2.59614        -0.435178      0.056267     -0.564781
O     -0.89381      2.94824      4.90916        -0.480107      0.087902     -0.150283
