
# total energy =    -71.44655448

CRYSTAL
PRIMVEC
 4.836850526 -0.000315469 0.000226931
 -2.401372310 4.136458304 0.000558557
 -0.078242344 -0.090190703 5.316301899
PRIMCOORD
9 1 
Si     -0.13543      4.13343      0.01360        -0.139937      1.923354      1.851007
Si      3.73645      1.70678      3.47959         1.067206      0.919540      0.486906
Si      1.31473      2.35319      1.73534         0.089476     -2.268311      1.209057
O      1.27894      1.30859      0.47282         1.222564     -1.349150     -1.049732
O      0.36180      1.49535      2.81041         0.358751      0.767137      0.088835
O      3.15091      0.35542      4.11954         0.418888     -0.097328     -0.089892
O      0.83453      3.86662      1.44319        -1.430449     -0.394849     -2.484917
O      2.83544      2.36916      2.32717        -0.844008      0.666045     -0.037397
O     -0.96745      2.75167      4.77117        -0.758317     -0.167709      0.020887
