
# total energy =    -71.83907807

CRYSTAL
PRIMVEC
 4.925448575 -0.000321247 0.000231088
 -2.461809657 4.267035037 0.000576911
 -0.000663084 0.000570303 5.434666724
PRIMCOORD
9 1 
Si     -0.10462      4.24489      0.02055        -1.653668     -0.105302     -2.904618
Si     -1.12993      1.97356      3.59414        -0.512764      0.988333      1.290093
Si      1.33049      2.28653      1.86757         0.847793     -0.823597     -3.065155
O      1.40248      1.08707      0.63371        -0.883299      2.716112      1.904979
O      0.36211      1.80621      3.00879        -0.715220     -0.795845      0.914518
O      3.29139      0.55521      4.21172        -0.018878      0.156294      0.363298
O      0.73328      3.65215      1.19666         1.702006     -1.316756      1.416180
O      2.80629      2.56886      2.44131         0.188855     -0.343644     -0.168787
O     -1.16869      3.17972      4.73151         1.043640     -0.458985      0.216601
