
# total energy =    -71.70812311

CRYSTAL
PRIMVEC
 4.921490826 -0.000320989 0.000230902
 -2.456824153 4.260350528 0.000576060
 -0.010046451 -0.006783818 5.429283951
PRIMCOORD
9 1 
Si     -0.14779      4.23895      0.06531         0.329173      0.148564     -0.461197
Si     -1.13939      1.99592      3.54377        -0.050519     -0.415490      0.648439
Si      1.31147      2.25953      1.77392         0.711078     -0.765053      0.884978
O      1.25025      0.97850      0.81246         0.196636     -0.534723     -1.352012
O      0.39898      1.90891      3.03565        -0.929505     -0.807167      0.769998
O      3.22151      0.66376      4.32957         0.257135      0.448608     -0.164451
O      0.95086      3.71058      1.24543        -1.875948      1.020049     -2.299268
O      2.83602      2.35528      2.27222         1.277522      0.242295      0.740554
O     -1.09048      3.16337      4.66517         0.102838      0.671538      1.238964
