
# total energy =    -71.63548932

CRYSTAL
PRIMVEC
 4.917329055 -0.000320718 0.000230707
 -2.451319892 4.238267273 0.000572735
 -0.021717953 -0.035515727 5.415926172
PRIMCOORD
9 1 
Si      2.38180      0.04409      0.05172        -0.495422     -0.027524     -0.448272
Si      3.73538      1.92154      3.57804        -0.265456      0.078919      2.974374
Si      1.24465      2.28872      1.77055         0.375242      0.092359      0.650351
O      1.34503      1.20284      0.56353         0.566258     -0.342158     -0.351722
O      0.13477      1.62452      2.79458         3.254168      0.358863     -1.517614
O      3.34606      0.47564      4.28227        -0.058477      1.532290     -1.012510
O      0.91116      3.80525      1.23913         0.019192     -1.007401      1.079300
O      2.74819      2.47718      2.44896        -1.765830      0.203749      0.055553
O     -0.81290      2.92411      4.89980        -1.627224     -0.894134     -1.417144
