
# total energy =    -71.77036420

CRYSTAL
PRIMVEC
 4.906893672 -0.000320037 0.000230217
 -2.445314240 4.224194230 0.000570733
 -0.026326490 -0.043467898 5.403958514
PRIMCOORD
9 1 
Si     -0.12344      4.11520      5.32549         0.299592      2.085357      2.470946
Si      3.74491      1.88606      3.60764        -0.757981      0.991801      0.812251
Si      1.31668      2.27674      1.82228         1.069010     -0.905738      0.280839
O      1.60003      1.22363      0.60124        -0.847302      0.143305      0.172632
O      0.25372      1.66858      2.94306         2.168064      0.121457     -1.254123
O      3.30028      0.44643      4.19763         0.565636      0.603858     -1.036388
O      0.80325      3.64561      1.17077         0.054272     -0.199342      0.118575
O      2.76748      2.61572      2.55970        -1.699400     -0.637952     -1.011291
O     -1.13877      3.08477      4.76016        -0.877125     -2.214967     -0.563201
