
# total energy =    -71.92267071

CRYSTAL
PRIMVEC
 4.919079063 -0.000320832 0.000230789
 -2.452629277 4.246417732 0.000573996
 -0.015476966 -0.024312145 5.420875365
PRIMCOORD
9 1 
Si     -0.13486      4.19196      5.36410        -0.737986      0.441665      2.380731
Si     -1.10061      1.90256      3.63988        -0.097676      1.119806     -0.724199
Si      1.37024      2.27943      1.80883         0.029465     -0.357975      0.160692
O      1.50648      1.28568      0.51430        -0.033295     -0.413271      0.310813
O      0.36084      1.65747      2.94350        -0.717376     -0.104072      0.432249
O      3.22337      0.50382      4.18361         1.212661      0.026230     -0.564056
O      0.69665      3.65318      1.28221        -0.133783      0.626525     -1.250413
O      2.77118      2.58186      2.58065        -0.158816     -0.489595     -0.883003
O     -1.16776      3.09776      4.78451         0.670740     -0.844269      0.095701
