
# total energy =    -71.61359675

CRYSTAL
PRIMVEC
 4.919347785 -0.000320849 0.000230801
 -2.453817587 4.251789952 0.000574812
 -0.012414943 -0.016310850 5.423710248
PRIMCOORD
9 1 
Si      2.27479      0.00387      5.38131         0.665954      0.295588     -0.168275
Si     -1.07239      2.00629      3.63292        -1.702719     -0.939022      1.896792
Si      1.37375      2.23461      1.83272        -0.328477      1.110662      0.644035
O      1.41494      1.27201      0.53988         0.604980     -1.150811      0.189326
O      0.38806      1.67016      3.08280         1.671553      0.561670     -1.399943
O      3.29143      0.47386      4.16608        -0.055326      1.724720      0.191932
O      0.64638      3.50695      1.11184         1.044288      0.564675      1.593997
O      2.87081      2.59172      2.47970        -1.570009     -0.474930     -1.040787
O     -1.20617      3.13644      4.87350        -0.306273     -1.713963     -1.899198
