
# total energy =    -71.72553024

CRYSTAL
PRIMVEC
 4.881800928 -0.000318400 0.000229040
 -2.430480084 4.197460027 0.000567091
 -0.044148798 -0.052999441 5.376820825
PRIMCOORD
9 1 
Si      2.26362      0.07074      0.08423        -0.413783     -1.955851     -2.935956
Si     -1.07422      1.88016      3.52639        -0.240879      0.626465      0.543027
Si      1.35598      2.24988      1.77776        -0.369896      0.280365     -1.453186
O      1.12388      1.06469      0.62515         0.781114      0.915129      0.469080
O      0.45198      1.74295      2.98648        -0.672631     -0.383722      0.841591
O      3.17072      0.57198      4.22203        -0.493118     -0.582274      0.003291
O      0.86971      3.70069      1.16483         0.519914     -0.875400      1.184328
O      2.90709      2.36089      2.21125         0.465932     -0.023113      0.881062
O     -1.04826      2.89390      4.79026         0.425947      1.999434      0.438177
