
# total energy =    -71.58087615

CRYSTAL
PRIMVEC
 4.887947358 -0.000318801 0.000229328
 -2.434133033 4.205206899 0.000568176
 -0.039414563 -0.049043692 5.384041694
PRIMCOORD
9 1 
Si      2.22380     -0.03727      5.37618         1.447588      0.835041      1.315668
Si     -1.01556      1.92302      3.58663        -1.388470     -0.747004      0.793022
Si      1.37547      2.23110      1.69986        -0.026043     -0.321983      2.001819
O      1.16724      1.08116      0.52017         0.388526      1.489312      1.563237
O      0.48915      1.72291      3.05704         0.221792      0.103509     -1.084490
O      3.03542      0.61507      4.17380         1.857424      0.347552     -0.593278
O      0.81252      3.69541      1.24592        -0.081078     -0.150233     -0.803515
O      2.89535      2.36733      2.38060        -1.178116      0.664533     -1.710751
O     -1.05239      2.96626      4.85976        -1.245217     -2.191347     -1.496612
