
# total energy =    -71.67773748

CRYSTAL
PRIMVEC
 4.916352147 -0.000320654 0.000230661
 -2.450436814 4.236721509 0.000572525
 -0.022854537 -0.037158900 5.414684493
PRIMCOORD
9 1 
Si      2.40661      0.05662      0.02578        -1.371422     -0.237206      0.314989
Si      3.75942      1.92018      3.66234         0.532183      2.102653     -2.857892
Si      1.24690      2.26521      1.77245         0.799546      0.500947     -0.769302
O      1.27602      1.17647      0.52115         1.532361     -0.408570     -0.291666
O      0.16934      1.62011      2.75012        -0.306903      0.250560      1.071887
O      3.34907      0.53901      4.25253        -1.071911     -1.670089      0.642452
O      0.91212      3.78928      1.22078        -0.098150     -0.777716      0.602698
O      2.70427      2.48915      2.46159         0.610061     -0.541462      1.653392
O     -0.82866      2.90286      4.90558        -0.613607      0.783722     -0.374384
