
# total energy =    -71.73605794

CRYSTAL
PRIMVEC
 4.870711395 -0.000317677 0.000228520
 -2.422805793 4.181630956 0.000564882
 -0.052013170 -0.062417407 5.362247927
PRIMCOORD
9 1 
Si      2.30267     -0.05916      5.32860        -0.825374     -2.195105     -0.759641
Si     -1.13558      1.88169      3.52772         0.717414      0.911620      2.517101
Si      1.32567      2.20890      1.81069         0.059960     -0.615330     -1.118690
O      1.45563      1.08995      0.60778        -2.025450      2.934095      1.748599
O      0.40099      1.70009      3.04129        -0.214956     -0.110389     -0.344177
O      3.25981      0.46398      4.16537         0.708802      0.616450     -0.792236
O      0.82680      3.60902      1.18386         0.177429     -0.543403      0.107314
O      2.79762      2.42755      2.39089        -0.099534      0.339116     -1.113088
O     -1.27326      3.12642      4.66576         1.514996     -1.345079     -0.249993
