
# total energy =    -71.69334891

CRYSTAL
PRIMVEC
 4.923532965 -0.000321122 0.000230998
 -2.459259725 4.267136946 0.000577047
 -0.004858690 0.001287037 5.433772647
PRIMCOORD
9 1 
Si      2.29336      0.01681      5.43178        -0.753002      0.377262     -1.264315
Si     -1.08678      2.07053      3.58999        -1.560773      0.000175      2.851798
Si      1.33368      2.21951      1.85874         0.134225      0.132609     -1.997580
O      1.34418      1.08039      0.69396        -0.570952      0.312987      1.324589
O      0.41445      1.77531      3.12763         0.709323      0.332546     -0.699232
O      3.23884      0.77138      4.37256         0.508293     -0.244041     -1.037477
O      0.77641      3.46842      0.94609         1.727239     -0.957101      3.059477
O      2.87023      2.40995      2.35339        -0.307821      0.616842     -0.420388
O     -1.19957      3.22250      4.78472         0.141830     -0.593738     -1.846247
