
# total energy =    -71.94970873

CRYSTAL
PRIMVEC
 4.918995519 -0.000320826 0.000230785
 -2.452490631 4.242978607 0.000573444
 -0.017991848 -0.029663137 5.419113305
PRIMCOORD
9 1 
Si     -0.10658      4.20266      0.02813        -0.186115      1.202833     -1.167939
Si      3.75461      1.88293      3.58089         0.552547      1.097512     -0.586649
Si      1.29986      2.31353      1.79713        -0.034268     -0.269983     -0.164641
O      1.53404      1.25691      0.59089        -0.929796     -0.220753     -0.721475
O      0.27753      1.66505      2.86037        -0.445846     -0.141877      0.229759
O      3.28039      0.52739      4.23446        -0.533242     -1.498322      0.710626
O      0.79427      3.79614      1.30268         0.390498     -1.344930     -0.017112
O      2.72178      2.50495      2.49058         0.961413      0.268056      0.662282
O     -1.00079      2.97924      4.76810         0.250921      0.936724      1.073218
