
# total energy =    -71.74605787

CRYSTAL
PRIMVEC
 4.919170363 -0.000320838 0.000230793
 -2.452591525 4.244560951 0.000573696
 -0.016811948 -0.027285470 5.420010781
PRIMCOORD
9 1 
Si     -0.11734      4.16136      5.39218        -1.029205      1.868006      1.315044
Si      3.79986      1.87618      3.58785        -1.635179      1.273931      2.297850
Si      1.33025      2.30015      1.79539         0.274208     -0.185530      0.700240
O      1.53601      1.27021      0.55180        -0.759129      0.106367      0.191356
O      0.26776      1.66199      2.92949         3.025845     -0.028753     -1.805970
O      3.22507      0.51334      4.23330         1.466576      0.290876     -1.238499
O      0.72766      3.76083      1.28457         1.168168     -1.772778      0.677731
O      2.77930      2.53755      2.56211        -2.009848      0.254096     -1.600458
O     -1.07293      3.06702      4.78350        -0.484499     -1.797676     -0.543713
