
# total energy =    -72.25089243

CRYSTAL
PRIMVEC
 4.925484800 -0.000321250 0.000231089
 -2.461865538 4.267029089 0.000576907
 -0.000650139 0.000506091 5.434681828
PRIMCOORD
9 1 
Si     -0.13779      4.26368      0.00480        -0.261515     -0.067409     -0.512643
Si     -1.13114      1.98960      3.61849        -0.074352      0.169528      0.255573
Si      1.33072      2.27587      1.82131         0.110620     -0.209516     -0.623920
O      1.37495      1.14525      0.62586        -0.173440      0.589099      0.447924
O      0.34894      1.75825      2.99862        -0.126079     -0.111284      0.114082
O      3.26862      0.58679      4.24478         0.006272      0.037414      0.059762
O      0.79064      3.67228      1.18589         0.324089     -0.268345      0.267478
O      2.80846      2.52381      2.43826         0.009259     -0.051673     -0.025997
O     -1.10464      3.11983      4.79660         0.150259     -0.061235      0.003231
