
# total energy =    -71.43071916

CRYSTAL
PRIMVEC
 4.838991766 -0.000315608 0.000227031
 -2.402715237 4.139172682 0.000558935
 -0.076595788 -0.088406045 5.319112680
PRIMCOORD
9 1 
Si     -0.15473      4.11910      0.01052         1.165346      3.043406      1.839918
Si     -1.08839      1.74456      3.48198         0.040593     -0.442313      0.483027
Si      1.30103      2.35591      1.74315         0.803220     -2.922242      1.004419
O      1.30134      1.30045      0.47483         0.867475     -1.115344     -0.833358
O      0.36037      1.49763      2.81327         0.454150      0.726511      0.131594
O      3.17062      0.34472      4.11819         0.266278      0.526697      0.027453
O      0.83415      3.84461      1.44862        -1.863160      0.386840     -2.825236
O      2.83876      2.38170      2.31068        -0.655540      0.504233      0.354393
O     -0.97083      2.75789      4.78028        -1.110354     -0.698221     -0.206559
