
# total energy =    -71.68711193

CRYSTAL
PRIMVEC
 4.913428653 -0.000320463 0.000230524
 -2.448787438 4.232094444 0.000571852
 -0.024336790 -0.040206677 5.410994024
PRIMCOORD
9 1 
Si      2.37860      0.02768      0.01246         0.907717      0.458775     -0.628994
Si     -1.08370      1.99374      3.60241        -1.359660     -1.644916      2.841187
Si      1.33677      2.21779      1.71942        -0.718174      0.587717      1.965723
O      1.32292      1.16372      0.48823         0.553490      0.459693      0.785863
O      0.21566      1.64487      2.81480         2.052185      0.166043     -1.404343
O      3.26715      0.53188      4.21358         0.704392      0.879379     -0.092501
O      0.86189      3.68496      1.20387         0.325970      0.047238      0.433590
O      2.64803      2.45915      2.67595        -1.452562      0.814564     -2.393496
O     -0.96300      3.00270      4.90976        -1.022763     -1.734627     -1.547033
