
# total energy =    -71.70944628

CRYSTAL
PRIMVEC
 4.923376624 -0.000321112 0.000230990
 -2.459071266 4.266921218 0.000577021
 -0.005237222 0.001070656 5.433603545
PRIMCOORD
9 1 
Si      2.28391      0.02659      0.01111         0.634077     -0.523179     -1.938320
Si     -1.09496      2.07999      3.60116        -0.688705     -0.472472      2.193301
Si      1.34666      2.21472      1.85454        -0.450578      0.140745     -2.375106
O      1.32219      1.05011      0.68136        -1.220414      1.689985      2.270533
O      0.41815      1.77730      3.11098         0.086406      0.378753     -0.329564
O      3.23579      0.78088      4.37031         0.157872     -0.576568     -0.579161
O      0.79841      3.48435      0.94682         1.558699     -1.059748      2.807925
O      2.87198      2.39076      2.35092        -0.146359      0.713094     -0.532819
O     -1.18489      3.21450      4.78115         0.059858     -0.266690     -1.502020
