
# total energy =    -71.61223131

CRYSTAL
PRIMVEC
 4.867841481 -0.000317490 0.000228385
 -2.420686562 4.177768639 0.000564355
 -0.054153075 -0.064541043 5.358448223
PRIMCOORD
9 1 
Si     -0.12562      4.08366      5.29691        -0.124694      0.660786      1.477964
Si     -1.07903      1.90385      3.55354        -2.121490      0.719220      1.117657
Si      1.31035      2.16641      1.78423         1.742200      0.353542      1.862648
O      1.44130      1.17739      0.59130         0.303625     -1.886800     -1.626770
O      0.40228      1.70243      3.03305         0.183895     -0.502008     -0.020584
O      3.26427      0.45398      4.11667         0.235084      0.447664      0.411099
O      0.81306      3.53079      1.21089        -1.682041      2.591487     -2.060073
O      2.76142      2.47107      2.44794         0.438603     -0.372407     -0.624634
O     -1.28231      3.14918      4.68335         1.030019     -2.040955     -0.544681
