
# total energy =    -71.57420303

CRYSTAL
PRIMVEC
 4.865933846 -0.000317366 0.000228295
 -2.419316631 4.175214608 0.000564005
 -0.055513888 -0.065908444 5.355927365
PRIMCOORD
9 1 
Si     -0.13157      4.06165      5.28958         0.461465      2.076967      1.140248
Si     -1.06273      1.92548      3.58462        -2.484538     -0.244728     -0.421563
Si      1.31765      2.14203      1.78259         1.362033      1.916743      1.987585
O      1.43115      1.21100      0.56108         0.746354     -2.919205     -2.331948
O      0.40533      1.69502      3.02647        -0.082303     -0.497569      0.146708
O      3.27345      0.45738      4.09011        -0.346914      0.037802      1.154461
O      0.77698      3.52270      1.19378        -1.017967      1.575003     -1.164628
O      2.74506      2.49296      2.46915         0.836807     -0.538323     -0.427468
O     -1.26624      3.12514      4.68440         0.537696     -1.428539     -0.039809
