
# total energy =    -71.54566756

CRYSTAL
PRIMVEC
 4.903900753 -0.000319842 0.000230077
 -2.443806668 4.221137731 0.000570307
 -0.027372317 -0.044064104 5.400898919
PRIMCOORD
9 1 
Si     -0.14704      4.12087      5.35384         0.219821      1.815373      0.552843
Si      3.69122      1.88963      3.63906         1.388703      0.174028     -3.504695
Si      1.32623      2.27426      1.85538         0.015161      0.530205     -0.347287
O      1.61535      1.26638      0.65709        -0.288083     -2.146772     -2.217020
O      0.32012      1.66329      2.94868        -1.252793      0.164920      0.850162
O      3.35042      0.39263      4.14025        -1.353250      0.218799      0.751747
O      0.79222      3.63453      1.15567         0.012399     -0.352919      0.333125
O      2.78375      2.64928      2.42366         1.123584     -1.224654      1.963480
O     -1.16218      3.04251      4.72077         0.149723      0.814752      1.618093
