
# total energy =    -71.84000658

CRYSTAL
PRIMVEC
 4.852316025 -0.000316477 0.000227657
 -2.410839273 4.156879347 0.000561427
 -0.066052792 -0.077321662 5.337380230
PRIMCOORD
9 1 
Si      2.25785     -0.02909      5.29761        -1.191893     -1.014888      1.068743
Si     -1.11576      1.83552      3.54202         0.924738      1.638157      0.336221
Si      1.33956      2.20541      1.75385        -0.258503      0.938697      2.197287
O      1.37966      1.30239      0.48120         0.929976     -2.643246     -2.064587
O      0.36875      1.58232      2.92701         0.344765      0.086050     -0.172446
O      3.26179      0.42709      4.12878        -0.434996     -0.675650     -0.008736
O      0.69545      3.56236      1.23638        -0.027173      2.058238     -0.151687
O      2.81829      2.50348      2.37719        -0.383114     -0.506119      0.198402
O     -1.10586      2.86768      4.85170         0.121080      0.140149     -1.382084
