
# total energy =    -71.80839182

CRYSTAL
PRIMVEC
 4.921102257 -0.000320964 0.000230884
 -2.456073178 4.258349224 0.000575770
 -0.010397552 -0.009034365 5.428001114
PRIMCOORD
9 1 
Si     -0.15738      4.21939      0.00388         0.716300      1.766702      0.707188
Si     -1.16223      1.99865      3.53117         0.682674     -0.736365      3.521049
Si      1.32509      2.26352      1.79755        -0.629567      0.365468      1.042580
O      1.35537      1.05309      0.77031        -0.558443     -0.465663     -1.074285
O      0.37103      1.85338      3.10963         1.604789     -0.133858     -1.600521
O      3.24892      0.64133      4.33123         0.426228      0.957005     -1.119123
O      0.83916      3.70508      1.18852         0.352037     -1.356879      0.278883
O      2.86917      2.38468      2.30519        -1.006090      0.976221     -0.807279
O     -1.07262      3.14287      4.73587        -1.566306     -1.396325     -0.965107
