
# total energy =    -71.86803014

CRYSTAL
PRIMVEC
 4.920322126 -0.000320913 0.000230847
 -2.455031504 4.255988219 0.000575436
 -0.011267423 -0.011857882 5.426363468
PRIMCOORD
9 1 
Si      2.29893     -0.01073      5.37966        -0.434182     -0.721525      0.244679
Si     -1.15439      1.98269      3.62942         1.406259      1.211604     -2.972052
Si      1.32001      2.27333      1.85620         0.598739     -0.648568     -1.976070
O      1.41770      1.11581      0.65334        -1.086221      1.164736      0.724877
O      0.42463      1.77880      3.09124        -1.294038     -0.050672      0.459976
O      3.29285      0.64895      4.26920        -1.072014     -2.622358      0.599465
O      0.73769      3.60938      1.13892         0.698469     -0.425377      0.516020
O      2.86404      2.47947      2.31591         0.586752     -0.128966      1.370195
O     -1.14326      3.06477      4.77397         0.601773      2.236453      1.050706
