
# total energy =    -71.70008121

CRYSTAL
PRIMVEC
 4.922120658 -0.000321030 0.000230932
 -2.457624827 4.264017962 0.000576617
 -0.008168167 -0.002359412 5.431661014
PRIMCOORD
9 1 
Si      2.31842      0.02168      0.04619        -0.958767      0.179941      1.149373
Si     -1.11259      2.02447      3.63298        -0.625036      0.649458      0.344290
Si      1.36199      2.20452      1.75887        -0.731612      0.767762      1.204955
O      1.10397      0.93519      0.76711         1.947109      0.368773     -0.340365
O      0.34941      1.86113      3.03433         1.739106     -0.073570     -0.480607
O      3.18489      0.71270      4.35575         1.081383      1.243643     -0.932694
O      0.94923      3.67399      1.09764        -0.208585     -1.167600      0.450637
O      2.91186      2.34384      2.30396        -1.277846      0.146239     -0.277215
O     -1.09166      3.26247      4.71961        -0.996399     -2.118039     -1.078048
