
# total energy =    -71.78425138

CRYSTAL
PRIMVEC
 4.891871504 -0.000319057 0.000229512
 -2.436544724 4.209224329 0.000568715
 -0.036285397 -0.047420832 5.388247299
PRIMCOORD
9 1 
Si     -0.17691      4.14752      5.36155        -0.135713      0.473569     -0.207895
Si     -1.04101      1.92955      3.62898        -0.817859     -1.318227     -3.523945
Si      1.36274      2.22962      1.78317         0.288957      0.463923     -0.993909
O      1.29291      1.13344      0.52024        -0.236947      1.120330      1.297570
O      0.47225      1.71802      3.03079        -1.252770     -0.169012      0.474937
O      3.09411      0.61130      4.12490         0.176004     -1.899048      0.782930
O      0.76628      3.69589      1.21960         0.831814     -1.369190      0.205910
O      2.86196      2.42471      2.37298         0.520063      0.255963     -0.062644
O     -1.12310      2.92713      4.80795         0.651670      2.468986      2.021229
