
# total energy =    -72.02082509

CRYSTAL
PRIMVEC
 4.894230989 -0.000319211 0.000229623
 -2.438026121 4.211442103 0.000569005
 -0.034273424 -0.046794680 5.390627113
PRIMCOORD
9 1 
Si     -0.15007      4.14414      5.35274        -1.287022      1.177259      1.063255
Si     -1.07861      1.90509      3.59322        -0.815108      1.092522     -1.007978
Si      1.36073      2.23535      1.82136        -0.235029      0.956078     -1.072438
O      1.35323      1.21997      0.57952         0.719341     -1.833486     -1.090367
O      0.42700      1.71053      3.02092        -0.751181     -0.266813      0.670231
O      3.14905      0.55068      4.11778         0.040808     -1.184879      0.480033
O      0.76689      3.64776      1.20517         0.435134     -0.168817      0.168960
O      2.84759      2.47187      2.35235         1.412456     -0.045643      1.188290
O     -1.15078      2.96671      4.83089         0.486564      0.300185     -0.405386
