
# total energy =    -71.62173920

CRYSTAL
PRIMVEC
 4.900596549 -0.000319626 0.000229922
 -2.442271762 4.217676979 0.000569818
 -0.029179203 -0.045081697 5.397286304
PRIMCOORD
9 1 
Si      2.31271      0.00775      0.00096         1.026142     -2.738176     -2.603976
Si      3.68244      1.90079      3.56769         2.109632     -0.460837      1.125834
Si      1.34079      2.28070      1.87348        -0.049432     -0.725884     -1.240757
O      1.59190      1.21956      0.61178        -2.057692      2.225502      1.346591
O      0.33500      1.66953      2.99380        -0.049452      0.248982     -0.216982
O      3.32355      0.36337      4.11721        -1.083706      1.521952      0.459802
O      0.78408      3.59923      1.16231         0.182188      0.164031      0.391545
O      2.84991      2.60756      2.38221        -0.685299     -0.516499      0.280010
O     -1.18468      3.02457      4.76541         0.619465      0.274061      0.455386
