
# total energy =    -71.61884053

CRYSTAL
PRIMVEC
 4.918986772 -0.000320826 0.000230785
 -2.452986215 4.248721759 0.000574353
 -0.013836970 -0.020501535 5.421969808
PRIMCOORD
9 1 
Si      2.27729     -0.00672      5.39909         1.028771     -1.225057     -1.218475
Si     -1.08511      1.96736      3.67453         0.215018     -0.883503     -2.316344
Si      1.41113      2.24446      1.82689        -1.835220      0.470628     -0.601601
O      1.46477      1.28310      0.49151        -0.042341      0.081995      0.798463
O      0.43201      1.64664      2.98599        -1.989583      0.314101      0.857172
O      3.28284      0.48827      4.10619        -0.836423     -0.277907      1.840248
O      0.65476      3.55749      1.20763         0.151600      0.915267     -0.458058
O      2.76533      2.60851      2.55185         1.866099     -0.467617      0.015001
O     -1.23771      3.09557      4.80207         1.456410      1.056586      1.060387
