
# total energy =    -71.60913798

CRYSTAL
PRIMVEC
 4.921955229 -0.000321019 0.000230924
 -2.457515484 4.262988933 0.000576456
 -0.008890179 -0.003647242 5.431024726
PRIMCOORD
9 1 
Si      2.33426      0.01405      0.08573        -1.702393     -0.014172     -1.934103
Si     -1.10876      1.99431      3.60876        -1.135159      1.572396      0.600589
Si      1.34209      2.22072      1.76961        -0.155864      0.154064     -0.008590
O      1.12006      0.88998      0.76386         1.233238      2.112826      0.730598
O      0.35226      1.89080      3.02176         1.671823     -0.346655     -0.430456
O      3.19537      0.71057      4.33485         0.244804      0.028953      0.128833
O      0.94755      3.73415      1.12827         0.694599     -2.430632      1.226494
O      2.89531      2.34567      2.28889        -0.928620      0.081212     -0.130308
O     -1.10244      3.24450      4.69101         0.081196     -1.144336     -0.182830
