
# total energy =    -71.76714932

CRYSTAL
PRIMVEC
 4.922587144 -0.000321061 0.000230953
 -2.458102799 4.265728956 0.000576873
 -0.006767882 -0.000262207 5.432738098
PRIMCOORD
9 1 
Si      2.27153      0.03934      0.01498         1.423138     -0.582585      0.989651
Si     -1.12566      2.08583      3.66468         1.289542     -2.022849     -3.173201
Si      1.37541      2.19952      1.78512        -0.898433      0.386850      1.486260
O      1.17948      1.01000      0.73632         1.057489     -1.228141     -0.879574
O      0.40896      1.80707      3.04789        -1.018274      0.416714      0.832470
O      3.21401      0.76832      4.35554        -0.358344     -0.854105      0.492424
O      0.92133      3.53498      1.04411        -1.624256      1.952871     -1.115037
O      2.88729      2.34998      2.32326         0.355034      0.399957      0.247849
O     -1.12251      3.20829      4.73157        -0.249438      1.518689      1.110064
