
# total energy =    -71.72608224

CRYSTAL
PRIMVEC
 4.918109795 -0.000320769 0.000230743
 -2.451974007 4.239909178 0.000572970
 -0.020422049 -0.033648069 5.417098288
PRIMCOORD
9 1 
Si      2.34814      0.02821      0.06776         1.205853     -0.947633     -1.144562
Si      3.71275      1.92609      3.54684         1.659764     -1.299101      2.851882
Si      1.25215      2.31316      1.77975         0.699513     -0.940609      0.477131
O      1.43471      1.21823      0.59220        -0.638116      0.276896     -0.320719
O      0.20095      1.64257      2.79665         0.349005      0.116784      0.072507
O      3.33627      0.46020      4.28018        -0.162622      1.673240     -0.831053
O      0.90655      3.78884      1.29041        -1.071000      0.503551     -0.701928
O      2.73456      2.47178      2.44330        -0.995440      0.542966     -0.090667
O     -0.85413      2.92048      4.84623        -1.043056      0.106370     -0.314358
