
# total energy =    -71.90256170

CRYSTAL
PRIMVEC
 4.919925432 -0.000320887 0.000230829
 -2.454544939 4.254650738 0.000575242
 -0.011705837 -0.013295955 5.425473362
PRIMCOORD
9 1 
Si      2.29881      0.00363      5.35515        -0.871160     -1.040662      2.223732
Si     -1.12724      1.99038      3.64847         0.496535      0.229782     -2.433869
Si      1.32212      2.26879      1.85755         1.568180     -1.009015     -1.202623
O      1.41330      1.18263      0.61313        -0.028727     -0.398435      0.165419
O      0.42976      1.74071      3.07984        -1.464027     -0.043168      0.903313
O      3.28828      0.59018      4.24691         0.055016     -0.578387     -0.494823
O      0.71546      3.53425      1.13899        -0.571611      2.000901     -0.795371
O      2.87071      2.52965      2.35248         0.178203     -0.585183      1.247621
O     -1.17257      3.07385      4.81132         0.623314      1.451911      0.405314
