
# total energy =    -71.69639101

CRYSTAL
PRIMVEC
 4.878192198 -0.000318165 0.000228871
 -2.427995002 4.192488091 0.000566400
 -0.046605302 -0.055702613 5.372231126
PRIMCOORD
9 1 
Si      2.24606      0.00482      0.01319         2.110448      1.539366      1.322963
Si     -1.12989      1.89859      3.53381        -0.230254     -0.732959      0.846529
Si      1.31470      2.28272      1.81730         1.540590     -1.605593     -0.828218
O      1.23314      1.07160      0.67959         0.266101      0.525068      0.010921
O      0.36696      1.72476      2.99896         1.416181     -0.135859      0.067763
O      3.23823      0.49544      4.24174        -0.044443      1.288894     -0.865189
O      0.91059      3.67627      1.17417        -1.120973      0.635392     -0.476272
O      2.96365      2.36711      2.18546        -2.019322      0.130013      0.841243
O     -1.03701      2.99208      4.73284        -1.923608     -1.612097     -0.935851
