
# total energy =    -71.64098835

CRYSTAL
PRIMVEC
 4.921574792 -0.000320995 0.000230906
 -2.456997338 4.260858407 0.000576134
 -0.009942314 -0.006220461 5.429615803
PRIMCOORD
9 1 
Si     -0.14155      4.24919      0.08332         0.175381     -0.345070     -1.388261
Si     -1.13264      1.99058      3.55978        -0.031703      0.080018     -0.442873
Si      1.31021      2.25607      1.77781         1.093209     -0.852036     -0.243507
O      1.22292      0.94515      0.80295         0.155263      0.567967     -0.626770
O      0.40612      1.91612      3.01525        -1.742069     -0.973974      1.646732
O      3.21992      0.68092      4.32161        -0.109406     -0.312755      0.471930
O      0.96189      3.72013      1.23712        -1.696703      0.571139     -2.097031
O      2.83435      2.35322      2.26632         1.571746      0.073815      0.973152
O     -1.10132      3.16807      4.65301         0.591405      1.175672      1.687597
