
# total energy =    -71.58193994

CRYSTAL
PRIMVEC
 4.921661933 -0.000321000 0.000230910
 -2.457155114 4.261352057 0.000576207
 -0.009790907 -0.005655434 5.429944327
PRIMCOORD
9 1 
Si     -0.13477      4.25841      0.09705        -0.078351     -0.610698     -2.236499
Si     -1.12595      1.98553      3.57458        -0.044934      0.750280     -0.901545
Si      1.31229      2.25004      1.78101         1.253502     -0.625088     -1.057267
O      1.19644      0.91483      0.79012         0.137974      1.573859      0.130273
O      0.40410      1.91809      3.00351        -1.875435     -1.001883      1.923009
O      3.21779      0.69645      4.31611        -0.408657     -0.929095      0.919028
O      0.96389      3.73258      1.21770        -1.160278     -0.321338     -1.364796
O      2.84103      2.35157      2.26557         1.346347     -0.024837      0.900609
O     -1.10900      3.17895      4.64980         0.861822      1.190660      1.676221
