
# total energy =    -71.79895233

CRYSTAL
PRIMVEC
 4.914833102 -0.000320555 0.000230590
 -2.449497566 4.234295019 0.000572176
 -0.023978236 -0.039019148 5.412723887
PRIMCOORD
9 1 
Si      2.39522      0.05844      0.00449        -0.111194     -1.115375      0.844549
Si     -1.10616      1.97657      3.67033        -0.704965     -1.368894     -2.033599
Si      1.28480      2.24459      1.74524         0.520712     -0.520152     -0.022816
O      1.27323      1.12651      0.45515         0.620374      1.528639      1.672043
O      0.19627      1.62760      2.76307        -0.043994      0.237755      0.572330
O      3.29396      0.53839      4.23926         0.612468      0.404476     -0.558952
O      0.89804      3.72496      1.21998        -0.459123      0.373507     -0.378817
O      2.67672      2.47454      2.58293        -0.105716     -0.059019     -0.227361
O     -0.88858      2.93963      4.90661        -0.330310      0.528620      0.153721
