
# total energy =    -71.69768521

CRYSTAL
PRIMVEC
 4.923432217 -0.000321116 0.000230993
 -2.459138002 4.266995971 0.000577030
 -0.005109651 0.001145311 5.433661466
PRIMCOORD
9 1 
Si      2.28869      0.02294      0.00733         0.136461     -0.191442     -1.790838
Si     -1.09185      2.07693      3.59655        -1.007643     -0.310126      2.521242
Si      1.34240      2.21627      1.85673        -0.268123      0.136777     -2.338402
O      1.33010      1.05950      0.68440        -1.035302      1.307462      2.046514
O      0.41668      1.77642      3.11684         0.324442      0.366681     -0.481886
O      3.23661      0.77796      4.37155         0.291472     -0.446758     -0.773862
O      0.79003      3.47972      0.94475         1.704525     -1.124237      3.015772
O      2.87155      2.39675      2.35204        -0.220325      0.694133     -0.510586
O     -1.18984      3.21744      4.78337         0.078681     -0.420708     -1.677505
