
# total energy =    -71.65326686

CRYSTAL
PRIMVEC
 4.868214094 -0.000317514 0.000228402
 -2.420960605 4.178265285 0.000564422
 -0.053883043 -0.064278034 5.358938002
PRIMCOORD
9 1 
Si     -0.12437      4.08918      5.29989        -0.265877      0.270820      1.361975
Si     -1.08468      1.90005      3.54805        -1.875157      0.793399      1.415591
Si      1.31064      2.17213      1.78673         1.689918      0.038954      1.503834
O      1.44425      1.16631      0.59366         0.067481     -1.279024     -1.126379
O      0.40193      1.70296      3.03442         0.178312     -0.473640     -0.078630
O      3.26255      0.45389      4.12313         0.365597      0.529364      0.192984
O      0.81734      3.53689      1.21077        -1.613779      2.452656     -1.983487
O      2.76571      2.46588      2.44271         0.325401     -0.300086     -0.722546
O     -1.28393      3.15045      4.68230         1.137488     -2.050744     -0.567618
