
# total energy =    -71.71511850

CRYSTAL
PRIMVEC
 4.916478888 -0.000320662 0.000230667
 -2.450544749 4.236912619 0.000572551
 -0.022726143 -0.036970348 5.414842865
PRIMCOORD
9 1 
Si      2.40494      0.05509      0.02903        -1.350998     -0.145245      0.211535
Si      3.75632      1.91855      3.65246         0.404459      1.973112     -2.134938
Si      1.24597      2.26760      1.77243         0.696194      0.506780     -0.571750
O      1.28201      1.18082      0.52732         1.467327     -0.475531     -0.377830
O      0.16235      1.61988      2.75583         0.189470      0.307075      0.717844
O      3.35013      0.53182      4.25624        -0.963505     -1.262778      0.476686
O      0.91181      3.79349      1.22097        -0.014997     -0.903090      0.752367
O      2.71030      2.48836      2.45747         0.360685     -0.495479      1.564883
O     -0.82438      2.90558      4.90694        -0.790155      0.477337     -0.625305
