
# total energy =    -71.70137063

CRYSTAL
PRIMVEC
 4.878478250 -0.000318184 0.000228884
 -2.428208852 4.192876428 0.000566453
 -0.046432625 -0.055483190 5.372590126
PRIMCOORD
9 1 
Si      2.24392      0.01133      0.02053         2.110885      1.026946      0.854238
Si     -1.12414      1.89815      3.53009        -0.423268     -0.704290      1.161055
Si      1.31522      2.28207      1.81788         1.559069     -1.519208     -1.120975
O      1.22577      1.06411      0.67125         0.087893      0.997731      0.383940
O      0.36957      1.72751      2.99700         1.466244     -0.204592      0.087738
O      3.23301      0.49754      4.24347         0.016241      1.344483     -0.941949
O      0.90871      3.67924      1.17182        -0.972363      0.426847     -0.285416
O      2.96566      2.36633      2.18523        -2.093773      0.130605      0.751530
O     -1.03452      2.98556      4.73895        -1.744649     -1.452619     -0.909553
