
# total energy =    -71.63098069

CRYSTAL
PRIMVEC
 4.884568260 -0.000318581 0.000229170
 -2.432065029 4.201247515 0.000567631
 -0.041934691 -0.050988093 5.380260845
PRIMCOORD
9 1 
Si      2.27844      0.05466      0.04745        -1.130463     -0.838747     -0.427054
Si     -1.04373      1.88366      3.55028         0.064111      1.152001      0.055838
Si      1.38443      2.22833      1.70127        -1.186247      0.942714      2.522417
O      1.08189      1.12208      0.61445         2.119204     -2.207286     -1.823040
O      0.49798      1.73296      3.02021        -1.028495      0.048739      0.093161
O      3.09551      0.61371      4.19494         0.137003     -0.838150      0.296224
O      0.85388      3.67862      1.21762        -0.487156      0.858428     -0.578460
O      2.86809      2.35739      2.28579         1.404766      0.146511      0.435377
O     -1.04798      2.91595      4.84513         0.128662      0.693611     -0.580349
