
# total energy =    -71.67135383

CRYSTAL
PRIMVEC
 4.882884702 -0.000318471 0.000229091
 -2.431105633 4.198985211 0.000567309
 -0.043276765 -0.052183761 5.378205565
PRIMCOORD
9 1 
Si      2.27456      0.07020      0.07784        -1.250585     -1.484205     -2.217710
Si     -1.06306      1.87651      3.53654         0.292517      1.245717     -0.207609
Si      1.37268      2.23842      1.74550        -1.323761      0.646926      0.091368
O      1.09416      1.09490      0.62775         1.765621     -0.834545     -0.836577
O      0.47888      1.73999      2.99542        -1.216051     -0.167642      0.731696
O      3.14451      0.59741      4.20782        -0.630715     -1.272451      0.500374
O      0.86261      3.69234      1.18277         0.199787     -0.201329      0.574784
O      2.87997      2.35931      2.23414         1.628261      0.007714      1.038748
O     -1.05176      2.88891      4.81071         0.545635      2.071693      0.308182
