
# total energy =    -71.63493152

CRYSTAL
PRIMVEC
 4.916225132 -0.000320646 0.000230655
 -2.450332500 4.236529680 0.000572499
 -0.022978366 -0.037341788 5.414525428
PRIMCOORD
9 1 
Si      2.40781      0.05807      0.02264        -1.363314     -0.333734      0.439872
Si      3.76270      1.92253      3.67124         0.626452      2.124950     -3.521336
Si      1.24812      2.26300      1.77220         0.903972      0.490644     -0.935688
O      1.27096      1.17187      0.51482         1.574281     -0.334710     -0.234703
O      0.17615      1.62049      2.74506        -0.775793      0.179747      1.447437
O      3.34737      0.54519      4.24921        -1.149817     -2.002682      0.811715
O      0.91236      3.78460      1.22095        -0.192999     -0.638971      0.389846
O      2.69861      2.48962      2.46670         0.824572     -0.559853      1.730337
O     -0.83331      2.90061      4.90400        -0.441415      1.075502     -0.122059
