
# total energy =    -71.61409594

CRYSTAL
PRIMVEC
 4.917440172 -0.000320725 0.000230712
 -2.451421198 4.238466839 0.000572762
 -0.021561187 -0.035292668 5.416076478
PRIMCOORD
9 1 
Si      2.37737      0.04255      0.05457        -0.269413     -0.118297     -0.525565
Si      3.73206      1.92287      3.56971        -0.120171     -0.192652      3.392828
Si      1.24503      2.29213      1.77077         0.386963     -0.025340      0.739709
O      1.35610      1.20491      0.56773         0.391853     -0.261519     -0.348836
O      0.13715      1.62611      2.79757         3.298652      0.346375     -1.552985
O      3.34479      0.46971      4.28442         0.001433      1.732615     -1.104042
O      0.91132      3.80429      1.24447        -0.091328     -0.884942      0.918655
O      2.75076      2.47550      2.44906        -1.967490      0.317578     -0.156813
O     -0.81477      2.92524      4.89558        -1.650398     -0.916989     -1.386144
