
# total energy =    -71.64322285

CRYSTAL
PRIMVEC
 4.913888088 -0.000320493 0.000230545
 -2.449044168 4.232767979 0.000571949
 -0.024259470 -0.039866852 5.411522293
PRIMCOORD
9 1 
Si      2.38074      0.03797      0.00978         0.965094     -0.040749     -0.122057
Si     -1.08568      1.99477      3.61625        -1.444585     -1.738897      2.595826
Si      1.32190      2.22665      1.72270        -0.363738     -0.080589      1.517180
O      1.30610      1.14267      0.46730         0.294860      1.451640      1.641275
O      0.19689      1.63827      2.80676         2.451700      0.195857     -1.512277
O      3.26892      0.52643      4.22512         0.992196      1.226769     -0.521066
O      0.87244      3.69599      1.20770         0.166623      0.088802      0.283461
O      2.66675      2.46018      2.66065        -1.893185      0.711212     -2.349455
O     -0.93424      2.99277      4.91665        -1.168196     -1.795668     -1.508941
