
# total energy =    -71.83268781

CRYSTAL
PRIMVEC
 4.874156467 -0.000317902 0.000228681
 -2.425172478 4.186664362 0.000565588
 -0.049308093 -0.059270740 5.366965220
PRIMCOORD
9 1 
Si     -0.14886      4.11727      5.34750        -1.453600      0.377712     -0.146904
Si      3.69030      1.88293      3.55921         2.333926      0.426730     -1.688602
Si      1.34036      2.24981      1.81569        -1.361486      0.016130     -0.054686
O      1.37135      1.10620      0.70058        -0.220649     -0.864760     -1.665935
O      0.38608      1.69464      3.03087        -0.195779      0.465986     -0.254047
O      3.28040      0.49939      4.19704        -0.884579     -0.981434      0.303431
O      0.86123      3.67811      1.16158         0.406434     -1.358585      0.774536
O      2.85824      2.38687      2.26320         0.841411      0.335235      0.973615
O     -1.17396      3.03491      4.64275         0.514215      1.555631      1.769430
