
# total energy =    -71.72601021

CRYSTAL
PRIMVEC
 4.925395734 -0.000321244 0.000231085
 -2.461729559 4.267053543 0.000576917
 -0.000676837 0.000682769 5.434646697
PRIMCOORD
9 1 
Si     -0.09459      4.23495      0.01667        -2.016414      0.054065     -2.805221
Si     -1.13134      1.96957      3.58725        -0.639135      1.235550      1.400425
Si      1.33371      2.28843      1.87810         0.965936     -1.173531     -3.116364
O      1.40987      1.07773      0.65172        -0.676370      2.558112      1.750350
O      0.36369      1.82469      3.02017        -0.623693     -0.970710      0.963248
O      3.30266      0.54060      4.19771        -0.088247      0.229550      0.556504
O      0.71674      3.63262      1.21224         1.507187     -0.908833      0.944551
O      2.80649      2.58903      2.44163         0.269543     -0.516949     -0.165434
O     -1.19343      3.20651      4.70033         1.326559     -0.560600      0.474382
