
# total energy =    -71.95070746

CRYSTAL
PRIMVEC
 4.895906047 -0.000319320 0.000229702
 -2.439179856 4.212993702 0.000569203
 -0.032842236 -0.046415895 5.392295002
PRIMCOORD
9 1 
Si     -0.14294      4.15280      5.35564        -1.229678      0.878233      1.533775
Si     -1.11380      1.89543      3.55445        -0.778575      1.258525      1.595691
Si      1.35761      2.24838      1.83761        -0.297906      0.524195     -0.164377
O      1.40725      1.25497      0.60754         0.842208     -2.691337     -1.758594
O      0.38051      1.70053      3.02527         0.719581     -0.138766     -0.185689
O      3.18917      0.48471      4.12181         0.376127      0.312960     -0.184726
O      0.77578      3.60808      1.19799        -0.113188      1.055759     -0.120307
O      2.86003      2.50537      2.35586         0.403568     -0.090075      0.849353
O     -1.16146      3.00548      4.84580         0.069151     -1.103403     -1.557279
