
# total energy =    -71.76332793

CRYSTAL
PRIMVEC
 4.872346173 -0.000317784 0.000228596
 -2.423963740 4.183951521 0.000565204
 -0.050728345 -0.061010561 5.364471797
PRIMCOORD
9 1 
Si      2.29843     -0.05648      5.34446        -1.511691     -1.621265     -1.671563
Si      3.70463      1.87756      3.53732         2.028318      0.918048      1.206441
Si      1.33890      2.22927      1.81964        -1.347849     -0.373252     -1.474229
O      1.43275      1.07768      0.64231        -1.891764      2.550368      1.146112
O      0.39744      1.69546      3.04032        -0.384264      0.232998     -0.451171
O      3.26941      0.48173      4.18345         0.056273     -0.117276     -0.485807
O      0.83277      3.65756      1.16191         1.218120     -2.057936      1.481281
O      2.82006      2.40483      2.33524         0.571962      0.494387     -0.379309
O     -1.23915      3.08411      4.64916         1.283295     -0.035945      0.589274
