
# total energy =    -71.55257005

CRYSTAL
PRIMVEC
 4.925017859 -0.000321219 0.000231067
 -2.461153306 4.267261849 0.000576978
 -0.000836019 0.001686893 5.434543058
PRIMCOORD
9 1 
Si     -0.11479      4.20505      5.38395        -0.823940      0.961132      1.498336
Si      3.76958      1.99177      3.59578         0.100287      0.528256      0.258328
Si      1.36886      2.25361      1.85515        -0.625643      0.131245      1.537572
O      1.43190      1.12080      0.77010         0.953687     -2.258545     -2.477157
O      0.36138      1.84869      3.10063         0.938988     -0.579024     -0.434795
O      3.33717      0.50399      4.18063        -0.445452      1.072196      0.878896
O      0.68924      3.56079      1.26158        -0.733950      1.669075     -2.410048
O      2.82262      2.63435      2.43595         0.071514     -0.857420     -0.142314
O     -1.22067      3.28435      4.61769         0.571948     -0.679439      1.270357
