
# total energy =    -71.81231601

CRYSTAL
PRIMVEC
 4.919558470 -0.000320863 0.000230811
 -2.454097733 4.252979423 0.000574992
 -0.012116266 -0.015012356 5.424428584
PRIMCOORD
9 1 
Si      2.28660      0.00577      5.35896        -0.225768     -0.217086      1.900011
Si     -1.08962      2.00269      3.63759        -1.127804     -0.571875      0.681264
Si      1.34683      2.24959      1.84222         0.815688      0.004270      0.310913
O      1.40771      1.24908      0.57119         0.709042     -1.496642     -0.097749
O      0.40216      1.69634      3.08547         0.564954      0.354694     -0.566051
O      3.28448      0.50843      4.20779         0.607736      1.551754     -0.840803
O      0.67723      3.49705      1.12275        -0.161526      2.019301      0.161547
O      2.88048      2.57258      2.42584        -1.069145     -0.639706     -0.065079
O     -1.19198      3.11786      4.86086        -0.114445     -0.998198     -1.495313
