
# total energy =    -71.74358217

CRYSTAL
PRIMVEC
 4.898471607 -0.000319488 0.000229822
 -2.440995479 4.215476925 0.000569521
 -0.030725103 -0.045776704 5.394950736
PRIMCOORD
9 1 
Si      2.29004     -0.03741      5.38244         0.011416     -1.206369     -0.548863
Si      3.71940      1.89784      3.52784         1.190913     -0.124278      3.987344
Si      1.34846      2.27381      1.86018         0.081692     -1.083240     -0.326416
O      1.51482      1.23818      0.60704        -0.586338      0.035426      0.352599
O      0.33345      1.68156      3.02259         1.536792      0.167879     -0.974077
O      3.26313      0.39455      4.12217        -0.128458      1.637364     -0.199999
O      0.78504      3.58024      1.18175        -0.353247      1.510027     -0.217757
O      2.88032      2.55810      2.37895        -1.889581      0.216283     -0.846781
O     -1.17635      3.03327      4.82264         0.131351     -1.121879     -1.235266
