
# total energy =    -71.64165249

CRYSTAL
PRIMVEC
 4.924466045 -0.000321183 0.000231042
 -2.460466353 4.267628455 0.000577070
 -0.001918560 0.002526477 5.434482215
PRIMCOORD
9 1 
Si     -0.17319      4.23215      5.37057         1.889500     -0.500343     -0.731310
Si     -1.16570      2.04174      3.62744         1.306008     -1.021569     -0.606638
Si      1.36163      2.22459      1.87239        -1.074358      0.604269     -1.496194
O      1.51375      1.03747      0.72410        -2.372743      3.486333      1.959465
O      0.42860      1.81468      3.15905        -0.648652      0.051581     -0.518030
O      3.33000      0.58667      4.24772        -0.378328      0.667067      0.063559
O      0.64756      3.55529      1.13318         1.910614     -2.310935      1.130847
O      2.84553      2.59832      2.40417        -0.172930     -0.488770     -0.293593
O     -1.21409      3.28197      4.63471        -0.436676     -0.499937      0.525030
