
# total energy =    -71.59701379

CRYSTAL
PRIMVEC
 4.921632503 -0.000320998 0.000230909
 -2.457104477 4.261188744 0.000576183
 -0.009847586 -0.005844712 5.429835168
PRIMCOORD
9 1 
Si     -0.13706      4.25551      0.09312         0.029371     -0.551341     -1.963984
Si     -1.12818      1.98706      3.56991        -0.028304      0.510879     -0.824214
Si      1.31117      2.25231      1.78021         1.235996     -0.718127     -0.850512
O      1.20518      0.92425      0.79451         0.130506      1.260302     -0.124464
O      0.40592      1.91804      3.00629        -1.927447     -1.010938      1.922435
O      3.21867      0.69168      4.31749        -0.328260     -0.751111      0.809383
O      0.96408      3.72836      1.22522        -1.368388      0.007748     -1.666179
O      2.83790      2.35211      2.26524         1.473746      0.000314      0.954006
O     -1.10691      3.17458      4.64983         0.795240      1.246281      1.734932
