
# total energy =    -71.75152880

CRYSTAL
PRIMVEC
 4.919166660 -0.000320838 0.000230793
 -2.452600518 4.245170143 0.000573795
 -0.016376849 -0.026331619 5.420310153
PRIMCOORD
9 1 
Si     -0.11978      4.16745      5.37519        -1.141698      1.488727      2.394439
Si      3.80991      1.88105      3.60065        -1.489105      1.224500      1.938596
Si      1.34278      2.29402      1.79810         0.298341     -0.231815      0.638533
O      1.52864      1.27574      0.53745        -0.545762      0.008717      0.358241
O      0.28875      1.66075      2.94012         2.405340     -0.047745     -1.430280
O      3.21423      0.50669      4.22512         1.978741      0.717031     -1.686273
O      0.71368      3.72956      1.28443         0.845270     -1.146973      0.133781
O      2.78572      2.55258      2.57690        -1.955152      0.049565     -1.720172
O     -1.10335      3.08738      4.78681        -0.395068     -2.036270     -0.649411
