
# total energy =    -71.68957165

CRYSTAL
PRIMVEC
 4.914172945 -0.000320512 0.000230559
 -2.449190785 4.233210318 0.000572014
 -0.024199721 -0.039635451 5.411869651
PRIMCOORD
9 1 
Si      2.38381      0.04487      0.00768         0.798498     -0.443342      0.196339
Si     -1.08945      1.99249      3.62998        -1.338412     -1.739067      1.726039
Si      1.31130      2.23254      1.72757        -0.129353     -0.388782      1.144252
O      1.29586      1.13267      0.45803         0.232946      1.787480      1.930690
O      0.19164      1.63447      2.79685         2.081784      0.235678     -1.181444
O      3.27299      0.52638      4.23137         1.074228      1.260345     -0.722545
O      0.88005      3.70359      1.21118        -0.003185      0.176176      0.113576
O      2.67367      2.46304      2.64331        -1.646477      0.530673     -1.949780
O     -0.91850      2.98075      4.91668        -1.037703     -1.413743     -1.220950
