
# total energy =    -71.91828437

CRYSTAL
PRIMVEC
 4.892879370 -0.000319123 0.000229560
 -2.437160528 4.210184307 0.000568842
 -0.035430288 -0.047130304 5.389276175
PRIMCOORD
9 1 
Si     -0.16362      4.14416      5.35707        -0.831057      0.933053      0.275556
Si     -1.05559      1.91924      3.61919        -0.726470     -0.194952     -2.881807
Si      1.36178      2.23051      1.80231         0.084087      0.747138     -1.400910
O      1.31770      1.17180      0.54517         0.257416     -0.210799      0.234896
O      0.45752      1.71575      3.02367        -1.358862     -0.256311      0.840264
O      3.11778      0.59199      4.11904        -0.060575     -1.926538      0.821503
O      0.76394      3.67865      1.21248         0.756436     -1.009615      0.266985
O      2.85157      2.44454      2.36171         1.160217      0.127721      0.639309
O     -1.13742      2.93806      4.81410         0.705751      1.833099      1.171113
