
# total energy =    -71.65965966

CRYSTAL
PRIMVEC
 4.859339586 -0.000316935 0.000227986
 -2.415009934 4.166337826 0.000562766
 -0.060446914 -0.071422652 5.346890558
PRIMCOORD
9 1 
Si      2.27954     -0.06518      5.26701         0.332193     -0.655974      0.435343
Si     -1.11240      1.91854      3.60871         0.871467     -1.253994     -1.011988
Si      1.37265      2.16072      1.80075        -1.773832      0.271867     -1.703633
O      1.42138      1.19495      0.40166        -0.796437      2.262427      2.868032
O      0.38802      1.63582      3.00931         0.047057      0.102216     -0.695445
O      3.26131      0.45976      4.11188         0.225387     -0.161314     -0.240244
O      0.67970      3.51341      1.16532         1.204245     -0.218444      1.091613
O      2.77211      2.51795      2.47862         0.117760     -0.138694     -0.981003
O     -1.17556      3.00118      4.75707        -0.214393     -0.198741      0.232745
