
# total energy =    -71.67726672

CRYSTAL
PRIMVEC
 4.918546471 -0.000320797 0.000230764
 -2.452247296 4.241166671 0.000573162
 -0.019433161 -0.032124397 5.417941252
PRIMCOORD
9 1 
Si      2.33704      0.00477      0.06448         1.330104     -0.702862     -1.417359
Si      3.71529      1.91351      3.56385         1.644957     -0.777735     -0.303119
Si      1.26707      2.32023      1.79303         0.582167     -0.863344     -0.761904
O      1.48928      1.23419      0.60470        -0.928662      0.025036     -0.775102
O      0.26811      1.65874      2.79564        -2.563146     -0.509908      1.861813
O      3.32489      0.48948      4.25769        -0.660334      0.114200      0.151295
O      0.87961      3.78417      1.31630        -1.348362      0.810976     -1.506051
O      2.69932      2.48064      2.43859         1.991054      0.250039      1.569544
O     -0.91246      2.91854      4.79599        -0.056861      1.627625      1.171546
