
# total energy =    -71.71853705

CRYSTAL
PRIMVEC
 4.898780474 -0.000319508 0.000229836
 -2.441200433 4.215789727 0.000569562
 -0.030484948 -0.045685037 5.395283544
PRIMCOORD
9 1 
Si      2.28853     -0.03520      5.38634         0.249627     -1.597374     -0.965313
Si      3.71234      1.89862      3.53007         1.450358     -0.243446      3.876303
Si      1.34729      2.27593      1.86279         0.095685     -1.144589     -0.463066
O      1.52827      1.23318      0.60579        -0.891553      0.558686      0.657010
O      0.33180      1.67942      3.01992         1.387318      0.197389     -0.915845
O      3.27270      0.38705      4.12137        -0.273659      1.670938     -0.099893
O      0.78518      3.58105      1.17900        -0.294131      1.370647     -0.171508
O      2.87909      2.56511      2.38066        -1.924024      0.184465     -0.866943
O     -1.17812      3.03326      4.81572         0.193831     -0.991026     -1.067725
