
# total energy =    -71.58879427

CRYSTAL
PRIMVEC
 4.888590215 -0.000318843 0.000229358
 -2.434537686 4.205896587 0.000568269
 -0.038929234 -0.048729034 5.384741517
PRIMCOORD
9 1 
Si      2.22467     -0.04213      5.37240         1.704690      0.559514      0.911031
Si     -1.01515      1.92920      3.59717        -1.462304     -1.100657      0.233684
Si      1.37262      2.23151      1.71072         0.090642     -0.347399      1.540727
O      1.19120      1.07531      0.50659        -0.151833      2.196168      2.109050
O      0.48716      1.72185      3.05702         0.186960      0.091061     -1.047062
O      3.03705      0.61747      4.16590         1.744584      0.070392     -0.402441
O      0.80246      3.70128      1.24398         0.139449     -0.562978     -0.650253
O      2.89549      2.37333      2.38811        -1.251227      0.671594     -1.761497
O     -1.06143      2.96096      4.85022        -0.990945     -1.565732     -0.934206
