
# total energy =    -71.52384243

CRYSTAL
PRIMVEC
 4.902993432 -0.000319783 0.000230034
 -2.443397157 4.220199189 0.000570174
 -0.027790248 -0.044300052 5.399933392
PRIMCOORD
9 1 
Si     -0.15140      4.13783      5.37101         0.109093      0.648718     -0.606629
Si      3.68139      1.89446      3.63003         1.704362     -0.362355     -3.331139
Si      1.33084      2.27541      1.86485        -0.150564      0.379137     -0.937036
O      1.61650      1.25641      0.65078        -0.690322     -1.237731     -1.534471
O      0.33317      1.66391      2.95572        -1.454272      0.127428      0.951379
O      3.35376      0.37916      4.12811        -1.513661      0.536208      0.878254
O      0.78838      3.62793      1.15356         0.177563     -0.470724      0.499054
O      2.79515      2.64544      2.39985         1.241191     -1.131803      2.027981
O     -1.17290      3.02768      4.71975         0.582607      1.533692      2.051235
