
# total energy =    -71.51325913

CRYSTAL
PRIMVEC
 4.840592200 -0.000315713 0.000227106
 -2.403730827 4.141208183 0.000559217
 -0.075356538 -0.087051273 5.321236985
PRIMCOORD
9 1 
Si     -0.16544      4.11886      0.01478         1.894328      2.963604      1.311609
Si     -1.07893      1.77151      3.48570        -0.682536     -1.226754      0.382580
Si      1.29339      2.34769      1.75265         1.116251     -2.763074      0.470703
O      1.32376      1.28726      0.47110         0.360378     -0.545337     -0.377690
O      0.36209      1.50397      2.81616         0.387956      0.585044      0.187594
O      3.18715      0.33969      4.11726         0.083083      0.812677      0.097374
O      0.82238      3.82999      1.43512        -1.793056      0.348191     -2.616109
O      2.83701      2.39439      2.30030        -0.356366      0.347444      0.657141
O     -0.98010      2.75860      4.78605        -1.031350     -0.529423     -0.101014
