
# total energy =    -71.53987303

CRYSTAL
PRIMVEC
 4.924874249 -0.000321210 0.000231061
 -2.460940879 4.267354606 0.000577003
 -0.000992424 0.002051801 5.434527615
PRIMCOORD
9 1 
Si     -0.13532      4.20308      5.36793         0.193462      1.363669      2.053130
Si      3.75931      2.00846      3.60461         0.758174     -0.150782      0.011838
Si      1.37902      2.23488      1.85142        -1.457899      1.569882      1.926891
O      1.45257      1.11507      0.78316         0.690508     -2.548966     -2.925944
O      0.37318      1.84303      3.12555         0.758463     -0.363453     -0.686024
O      3.34126      0.50813      4.19177        -0.468807      1.373595      0.677295
O      0.67178      3.56417      1.24046        -0.087678      0.469494     -1.712881
O      2.83119      2.63351      2.43174        -0.137396     -0.734348     -0.263140
O     -1.21260      3.29841      4.61288        -0.217128     -1.014780      0.926164
