
# total energy =    -71.73272790

CRYSTAL
PRIMVEC
 4.910834178 -0.000320294 0.000230402
 -2.447333703 4.228718908 0.000571372
 -0.025014785 -0.041923733 5.408194654
PRIMCOORD
9 1 
Si     -0.08794      4.18473      5.39723        -0.700468     -0.477853     -0.844495
Si     -1.11192      1.93875      3.59902         0.184890      0.391536     -0.995565
Si      1.35775      2.22710      1.77273        -1.366679      0.752772     -0.969631
O      1.45839      1.20654      0.55301         0.202462     -0.731869     -0.615432
O      0.31997      1.67810      2.83054        -2.956993     -0.557282      1.693265
O      3.27672      0.56068      4.18918        -0.327614     -1.806117      0.793832
O      0.82985      3.64687      1.20138        -0.053302      0.507202     -0.416651
O      2.59284      2.50650      2.65390         3.462161      0.435098      0.503626
O     -1.11751      2.99856      4.81410         1.566841      1.490049      0.863224
