
# total energy =    -71.68370192

CRYSTAL
PRIMVEC
 4.877330207 -0.000318109 0.000228830
 -2.427355277 4.191305848 0.000566239
 -0.047128228 -0.056384284 5.371144818
PRIMCOORD
9 1 
Si     -0.21772      4.12396      5.36616         1.883283      2.516278      2.298790
Si     -1.14733      1.89841      3.54619         0.457113     -0.705460     -0.346364
Si      1.31623      2.28131      1.81425         1.296079     -1.507872      0.078707
O      1.25655      1.09477      0.70362         0.637315     -0.916812     -1.283741
O      0.36401      1.71615      3.00510         1.088312      0.081449      0.106815
O      3.25351      0.49349      4.23370        -0.355554      0.880796     -0.488121
O      0.91187      3.67005      1.17909        -1.399793      1.017909     -0.922329
O      2.95060      2.36991      2.18946        -1.594997      0.130805      1.161324
O     -1.05168      3.00568      4.71125        -2.051804     -1.459450     -0.590816
