
# total energy =    -71.62881883

CRYSTAL
PRIMVEC
 4.865152500 -0.000317315 0.000228259
 -2.418775256 4.174161475 0.000563859
 -0.056067812 -0.066496434 5.354881563
PRIMCOORD
9 1 
Si     -0.13309      4.05719      5.28968         0.457425      2.361980      0.572586
Si     -1.06218      1.93406      3.59676        -2.265722     -0.884832     -1.084375
Si      1.32410      2.13618      1.78698         1.025442      2.113556      1.180499
O      1.43009      1.21235      0.53912         0.613766     -2.325814     -1.670699
O      0.40651      1.68987      3.02435        -0.268739     -0.437966      0.181336
O      3.27609      0.45920      4.08382        -0.495573     -0.081779      1.274214
O      0.75738      3.52737      1.18091        -0.359039      0.649353     -0.354809
O      2.74172      2.49948      2.47573         0.895101     -0.521461     -0.461268
O     -1.25718      3.10875      4.68408         0.411028     -0.883046      0.385950
