
# total energy =    -71.84966335

CRYSTAL
PRIMVEC
 4.924025593 -0.000321154 0.000231021
 -2.459941168 4.267735614 0.000577112
 -0.003227566 0.002169582 5.434318160
PRIMCOORD
9 1 
Si     -0.15190      4.25530      5.37232        -0.790874      0.024608      1.504863
Si     -1.11843      2.04251      3.62186        -0.179175      0.659269     -1.186044
Si      1.31004      2.23867      1.85564         1.967223     -1.089501      0.897684
O      1.45055      1.11622      0.73959         0.004868     -1.815477     -1.028812
O      0.44304      1.78763      3.15766        -0.830512      0.218148     -0.072814
O      3.28999      0.70299      4.31431        -0.177505     -1.156410     -0.009177
O      0.72247      3.43636      1.06523        -1.083638      2.697345     -1.178068
O      2.85058      2.52567      2.36273         0.259066     -0.330967      0.626349
O     -1.23860      3.23560      4.69878         0.850421      0.802936      0.437087
