
# total energy =    -71.62271634

CRYSTAL
PRIMVEC
 4.917750657 -0.000320745 0.000230727
 -2.451693507 4.239076441 0.000572848
 -0.021079081 -0.034605387 5.416520352
PRIMCOORD
9 1 
Si      2.36381      0.03752      0.06191         0.441822     -0.503406     -0.788875
Si      3.72218      1.92614      3.55210         0.688174     -0.904114      3.932833
Si      1.24700      2.30213      1.77301         0.495312     -0.435964      0.820681
O      1.39034      1.21044      0.57919        -0.107907      0.034652     -0.246797
O      0.15592      1.63213      2.80104         2.606214      0.299746     -1.209896
O      3.34108      0.45853      4.28672         0.041890      2.005385     -1.184830
O      0.91120      3.79861      1.26339        -0.487585     -0.344452      0.319419
O      2.75104      2.47188      2.44833        -2.125378      0.565621     -0.547141
O     -0.82629      2.92543      4.87810        -1.535783     -0.703045     -1.086541
