
# total energy =    -71.64704406

CRYSTAL
PRIMVEC
 4.917846199 -0.000320751 0.000230731
 -2.451772544 4.239282905 0.000572878
 -0.020915710 -0.034370461 5.416666164
PRIMCOORD
9 1 
Si      2.35948      0.03556      0.06386         0.670359     -0.638121     -0.876553
Si      3.71922      1.92671      3.54890         0.986690     -1.062702      3.817854
Si      1.24799      2.30523      1.77432         0.548663     -0.576229      0.791698
O      1.40176      1.21224      0.58268        -0.267966      0.107713     -0.271054
O      0.16559      1.63451      2.80060         2.131445      0.270979     -0.929186
O      3.33990      0.45720      4.28605         0.010223      1.984722     -1.122012
O      0.91070      3.79616      1.27026        -0.632535     -0.133184      0.039705
O      2.74856      2.47131      2.44749        -1.989799      0.601849     -0.530815
O     -0.83201      2.92457      4.87087        -1.449367     -0.553963     -0.932815
