
# total energy =    -71.64520904

CRYSTAL
PRIMVEC
 4.918981466 -0.000320825 0.000230784
 -2.452841707 4.248096424 0.000574258
 -0.014261344 -0.021516760 5.421653165
PRIMCOORD
9 1 
Si      2.28681     -0.01706      5.38799         0.669963     -0.924263     -0.251759
Si     -1.09103      1.94934      3.67540         0.453782     -0.283301     -2.750274
Si      1.40428      2.25417      1.82421        -1.378847      0.097173     -0.700839
O      1.47553      1.28605      0.49428         0.069863     -0.203158      0.588677
O      0.42920      1.64976      2.96497        -2.458628      0.038488      1.342093
O      3.26873      0.49733      4.11832        -0.604923     -0.700364      1.588865
O      0.66906      3.57376      1.23794        -0.341702      1.383213     -1.222889
O      2.75451      2.60522      2.55979         2.075312     -0.518167      0.134193
O     -1.22886      3.09061      4.78953         1.533062      1.104334      1.256289
