
# total energy =    -71.70103902

CRYSTAL
PRIMVEC
 4.880167119 -0.000318294 0.000228963
 -2.429434411 4.195173791 0.000566769
 -0.045358214 -0.054221937 5.374720435
PRIMCOORD
9 1 
Si      2.24556      0.05104      0.06440         1.446879     -1.903679     -2.150938
Si     -1.09426      1.89083      3.51846        -0.913779     -0.318499      1.734660
Si      1.32921      2.26913      1.81044         1.118381     -0.469701     -2.185089
O      1.17907      1.03984      0.63269        -0.594638      2.548714      1.632422
O      0.40292      1.74018      2.98703         0.788199     -0.489962      0.435268
O      3.20241      0.52658      4.24130        -0.019736      0.835938     -0.849622
O      0.88885      3.69760      1.15885         0.074427     -0.801074      0.949976
O      2.95164      2.36306      2.19192        -1.546039      0.049745      0.537573
O     -1.03683      2.93434      4.76627        -0.373990      0.562789     -0.130735
