
# total energy =    -71.72126694

CRYSTAL
PRIMVEC
 4.921463015 -0.000320987 0.000230901
 -2.456763478 4.260177396 0.000576035
 -0.010074181 -0.006973516 5.429172513
PRIMCOORD
9 1 
Si     -0.14967      4.23556      0.05884         0.377808      0.341961     -0.144219
Si     -1.14166      1.99749      3.53869        -0.038037     -0.538385      1.062989
Si      1.31244      2.26012      1.77306         0.575094     -0.637488      1.251136
O      1.25960      0.98926      0.81419         0.184774     -0.869186     -1.597112
O      0.39524      1.90548      3.04364        -0.585640     -0.735283      0.455297
O      3.22226      0.65838      4.33220         0.373073      0.678558     -0.350453
O      0.94494      3.70854      1.24544        -1.847090      1.025303     -2.279118
O      2.83823      2.35620      2.27517         1.065739      0.325125      0.593070
O     -1.08659      3.16278      4.67086        -0.108178      0.416281      1.018596
