
# total energy =    -71.72442144

CRYSTAL
PRIMVEC
 4.921376184 -0.000320982 0.000230897
 -2.456573153 4.259646064 0.000575957
 -0.010149701 -0.007555439 5.428834538
PRIMCOORD
9 1 
Si     -0.15442      4.22634      0.03953         0.599873      0.990140      0.637316
Si     -1.14852      2.00091      3.52627         0.068184     -0.808616      2.434276
Si      1.31636      2.26082      1.77345         0.139654     -0.079385      1.987935
O      1.28827      1.01770      0.81318         0.117121     -1.565467     -1.995210
O      0.38277      1.89268      3.06845         0.504021     -0.518074     -0.525538
O      3.22610      0.64518      4.33834         0.650990      1.242232     -0.920290
O      0.92071      3.70592      1.23751        -1.509555      0.643468     -1.819211
O      2.84812      2.36034      2.28571         0.249955      0.591782      0.010711
O     -1.07584      3.16177      4.69100        -0.803424     -0.479098      0.205478
