
# total energy =    -71.71908459

CRYSTAL
PRIMVEC
 4.925372717 -0.000321242 0.000231084
 -2.461694812 4.267062940 0.000576921
 -0.000682445 0.000735278 5.434638087
PRIMCOORD
9 1 
Si     -0.09259      4.23165      0.01340        -2.065750      0.117950     -2.535383
Si     -1.13223      1.96907      3.58591        -0.669670      1.289090      1.365790
Si      1.33544      2.28832      1.87944         0.951582     -1.306179     -2.945994
O      1.41144      1.07780      0.65992        -0.517404      2.330552      1.544748
O      0.36341      1.82973      3.02513        -0.519615     -0.990285      0.937070
O      3.30633      0.53600      4.19366        -0.116916      0.259601      0.638761
O      0.71315      3.62486      1.21876         1.283430     -0.612586      0.572121
O      2.80686      2.59518      2.44153         0.287464     -0.573803     -0.148827
O     -1.20014      3.21479      4.69043         1.386290     -0.568234      0.587088
