
# total energy =    -71.78429465

CRYSTAL
PRIMVEC
 4.912929478 -0.000320431 0.000230500
 -2.448491530 4.231407496 0.000571754
 -0.024419903 -0.040548183 5.410453079
PRIMCOORD
9 1 
Si      2.37917      0.01873      0.01324         0.520002      0.623139     -0.971584
Si     -1.08585      1.98764      3.59705        -1.041987     -1.418106      1.921417
Si      1.34940      2.21077      1.72216        -1.114669      1.357894      2.162695
O      1.34278      1.18714      0.51320         0.876553     -0.832314     -0.483727
O      0.24518      1.65237      2.81553         0.699987      0.134499     -0.606703
O      3.26913      0.54198      4.20160         0.305477      0.260681      0.409803
O      0.85305      3.67421      1.20224         0.324548      0.113413      0.332686
O      2.62181      2.46247      2.67861        -0.065903      0.756165     -1.652343
O     -0.99713      3.00348      4.89466        -0.506556     -1.008595     -1.123435
