
# total energy =    -71.42323893

CRYSTAL
PRIMVEC
 4.838457166 -0.000315573 0.000227006
 -2.402377912 4.138493899 0.000558841
 -0.077008431 -0.088855944 5.318408064
PRIMCOORD
9 1 
Si     -0.15024      4.12130      0.01030         0.865247      2.873000      1.910168
Si      3.74682      1.73483      3.48129         0.295817     -0.134108      0.515396
Si      1.30418      2.35664      1.74060         0.643256     -2.852675      1.111834
O      1.29479      1.30364      0.47519         0.993017     -1.224902     -0.899950
O      0.36033      1.49637      2.81247         0.447572      0.759024      0.090495
O      3.16538      0.34712      4.11855         0.320885      0.395796     -0.014616
O      0.83582      3.84998      1.44974        -1.805676      0.264760     -2.790757
O      2.83862      2.37803      2.31465        -0.729434      0.557746      0.229218
O     -0.96908      2.75682      4.77812        -1.057993     -0.627896     -0.172478
