
# total energy =    -71.67104286

CRYSTAL
PRIMVEC
 4.924657605 -0.000321196 0.000231051
 -2.460667172 4.267501237 0.000577040
 -0.001407392 0.002420430 5.434510194
PRIMCOORD
9 1 
Si     -0.16283      4.21390      5.36387         1.450656      1.072223      1.063671
Si      3.75233      2.03092      3.61797         1.376857     -0.941141     -0.127794
Si      1.37866      2.22223      1.86256        -1.846335      1.353707     -0.126840
O      1.49279      1.06838      0.75607        -0.831072      0.705795     -0.387945
O      0.40280      1.82848      3.15050         0.038765     -0.063565     -0.774655
O      3.33895      0.53908      4.21978        -0.408087      1.363136      0.227718
O      0.64730      3.57280      1.18195         1.386785     -1.687733      0.168893
O      2.84128      2.61933      2.42027        -0.262137     -0.532408     -0.424353
O     -1.20623      3.30020      4.62093        -0.881066     -1.255390      0.340148
