
# total energy =    -71.70442492

CRYSTAL
PRIMVEC
 4.878763304 -0.000318202 0.000228897
 -2.428421482 4.193262545 0.000566506
 -0.046259387 -0.055267038 5.372947817
PRIMCOORD
9 1 
Si      2.24252      0.01819      0.02817         2.059597      0.443936      0.322516
Si     -1.11854      1.89745      3.52677        -0.586947     -0.675960      1.428625
Si      1.31628      2.28090      1.81808         1.544001     -1.387865     -1.393394
O      1.21845      1.05723      0.66314        -0.094296      1.444254      0.779737
O      0.37307      1.73015      2.99510         1.471584     -0.267813      0.082970
O      3.22779      0.50046      4.24463         0.065486      1.359302     -1.003063
O      0.90625      3.68246      1.16929        -0.807820      0.193700     -0.040208
O      2.96640      2.36562      2.18545        -2.121914      0.123463      0.657242
O     -1.03308      2.97816      4.74452        -1.531442     -1.194847     -0.834342
