
# total energy =    -71.69001773

CRYSTAL
PRIMVEC
 4.919428280 -0.000320855 0.000230805
 -2.453929302 4.252261481 0.000574883
 -0.012288658 -0.015781002 5.423993084
PRIMCOORD
9 1 
Si      2.27921      0.00450      5.37146         0.370923      0.188839      0.738144
Si     -1.07769      2.00565      3.63323        -1.592911     -0.801607      1.614316
Si      1.36279      2.23993      1.83594         0.115551      0.746499      0.593952
O      1.41077      1.26538      0.55240         0.701959     -1.390987      0.014067
O      0.39134      1.67978      3.08584         1.404517      0.493246     -1.156559
O      3.28815      0.48457      4.18334         0.231298      1.750311     -0.250154
O      0.65785      3.50070      1.11448         0.568288      1.158319      1.051472
O      2.87726      2.58506      2.45933        -1.479998     -0.535041     -0.726986
O     -1.19993      3.13179      4.87174        -0.329899     -1.600662     -1.871283
