
# total energy =    -71.59155778

CRYSTAL
PRIMVEC
 4.924802549 -0.000321205 0.000231057
 -2.460842765 4.267402012 0.000577016
 -0.001104815 0.002202355 5.434522063
PRIMCOORD
9 1 
Si     -0.14558      4.20474      5.36401         0.683327      1.474768      1.993488
Si      3.75548      2.01672      3.60913         1.047909     -0.462297     -0.024767
Si      1.38136      2.22830      1.85349        -1.753104      1.784166      1.456655
O      1.46561      1.10297      0.77920         0.336622     -1.845648     -2.412616
O      0.38194      1.83874      3.13568         0.554771     -0.256254     -0.752229
O      3.34159      0.51498      4.19994        -0.455999      1.448386      0.528430
O      0.66227      3.56837      1.22319         0.389687     -0.301508     -1.135011
O      2.83509      2.63033      2.42876        -0.203229     -0.658685     -0.333399
O     -1.20890      3.30197      4.61407        -0.572203     -1.189927      0.680740
