
# total energy =    -71.62291150

CRYSTAL
PRIMVEC
 4.889562612 -0.000318907 0.000229404
 -2.435144116 4.206915638 0.000568406
 -0.038175229 -0.048284646 5.385796968
PRIMCOORD
9 1 
Si      2.23037     -0.04818      5.36886         1.623619      0.064389      0.200470
Si     -1.01827      1.93547      3.61317        -1.406902     -1.613928     -1.153455
Si      1.36864      2.23128      1.73079         0.235077     -0.209648      0.814652
O      1.22616      1.07673      0.49591        -0.725905      2.736018      2.479510
O      0.48488      1.72064      3.05243        -0.114675      0.057124     -0.755654
O      3.04718      0.62105      4.15245         1.339833     -0.549502      0.004455
O      0.78816      3.70723      1.23827         0.446004     -1.086258     -0.375965
O      2.89018      2.38533      2.39157        -1.027134      0.608407     -1.514468
O     -1.07911      2.94668      4.83231        -0.382177     -0.011793      0.310960
