
# total energy =    -71.72708946

CRYSTAL
PRIMVEC
 4.923317715 -0.000321108 0.000230988
 -2.459000501 4.266843523 0.000577011
 -0.005365735 0.000992654 5.433543998
PRIMCOORD
9 1 
Si      2.27934      0.03007      0.01422         1.106042     -0.866827     -2.009562
Si     -1.09830      2.08289      3.60653        -0.390251     -0.646552      1.816900
Si      1.35076      2.21321      1.85154        -0.616195      0.138031     -2.353401
O      1.31354      1.04173      0.67970        -1.350044      1.930346      2.426990
O      0.41967      1.77841      3.10492        -0.137017      0.397059     -0.199808
O      3.23506      0.78345      4.36871         0.028948     -0.718338     -0.431761
O      0.80772      3.48834      0.95059         1.336368     -0.896135      2.577232
O      2.87233      2.38520      2.34947        -0.041011      0.716820     -0.501333
O     -1.17990      3.21138      4.77802         0.052306     -0.068486     -1.309353
