
# total energy =    -71.73602434

CRYSTAL
PRIMVEC
 4.844814235 -0.000315988 0.000227305
 -2.406403586 4.146643752 0.000559974
 -0.072053597 -0.083494869 5.326966281
PRIMCOORD
9 1 
Si      2.24298      0.00696      0.03699         2.055813     -0.287613     -1.854812
Si     -1.06767      1.82135      3.49961        -1.532864     -1.961539      0.136005
Si      1.29072      2.29198      1.77803         1.215754     -0.016935     -1.695231
O      1.38306      1.25093      0.45864        -1.475582      1.865095      0.932480
O      0.37313      1.53268      2.83230        -0.329491     -0.072332      0.748175
O      3.23071      0.34867      4.11764        -0.399758      0.860046      0.072834
O      0.75223      3.79040      1.34089         0.271624     -1.609087      0.060918
O      2.82680      2.43522      2.29358         0.204640     -0.000154      1.053952
O     -1.02644      2.75651      4.80315         0.010772      1.250531      0.547840
