
# total energy =    -72.01025626

CRYSTAL
PRIMVEC
 4.893893066 -0.000319189 0.000229607
 -2.437804274 4.211129551 0.000568965
 -0.034563026 -0.046874588 5.390291176
PRIMCOORD
9 1 
Si     -0.15285      4.14358      5.35345        -1.229211      1.151103      0.855973
Si     -1.07245      1.90830      3.60066        -0.789742      0.854550     -1.504634
Si      1.36106      2.23368      1.81727        -0.169713      0.934710     -1.230938
O      1.34385      1.20902      0.57142         0.628969     -1.475195     -0.757043
O      0.43562      1.71208      3.02088        -0.980348     -0.271600      0.751280
O      3.14127      0.56243      4.11751        -0.018467     -1.444050      0.585768
O      0.76562      3.65599      1.20678         0.533964     -0.413972      0.230000
O      2.84732      2.46502      2.35378         1.429815     -0.012278      1.087346
O     -1.14799      2.95869      4.82648         0.569578      0.694689     -0.019540
