
# total energy =    -71.69602918

CRYSTAL
PRIMVEC
 4.918481415 -0.000320793 0.000230761
 -2.452210725 4.240958654 0.000573130
 -0.019597578 -0.032385365 5.417803024
PRIMCOORD
9 1 
Si      2.33769      0.00947      0.06617         1.400808     -0.830180     -1.375825
Si      3.71336      1.91652      3.56026         1.714585     -0.925058      0.145755
Si      1.26397      2.31991      1.79105         0.670556     -0.936605     -0.557304
O      1.48150      1.23125      0.60351        -0.921226      0.107573     -0.731643
O      0.25945      1.65646      2.79383        -2.280022     -0.426558      1.703907
O      3.32750      0.48339      4.26179        -0.585899      0.419023      0.007049
O      0.88614      3.78363      1.31402        -1.385474      0.895274     -1.509200
O      2.70383      2.47864      2.43790         1.572526      0.284888      1.361398
O     -0.90210      2.91724      4.80345        -0.205510      1.402521      0.942216
