
# total energy =    -71.69870932

CRYSTAL
PRIMVEC
 4.857075625 -0.000316788 0.000227880
 -2.413623257 4.163323738 0.000562342
 -0.062260228 -0.073400305 5.343802719
PRIMCOORD
9 1 
Si      2.27999     -0.04149      5.25321        -0.680519     -1.402440      2.886682
Si     -1.12756      1.88242      3.58614         1.687988      0.695526      0.031535
Si      1.36958      2.18123      1.77971        -1.187680     -0.759910     -0.015541
O      1.39962      1.23710      0.41808         0.294542      0.335174      1.454439
O      0.37660      1.61654      2.99083         0.312948      0.105306     -0.660268
O      3.25391      0.45426      4.12883         0.674052     -0.231733     -0.876249
O      0.69289      3.48623      1.20355        -0.370847      2.581767     -0.880774
O      2.79335      2.51831      2.45439        -0.354343     -0.276709     -0.796818
O     -1.14776      2.96980      4.80698        -0.388692     -1.062874     -1.141391
