
# total energy =    -71.54577178

CRYSTAL
PRIMVEC
 4.866705143 -0.000317416 0.000228332
 -2.419862811 4.176250299 0.000564147
 -0.054966732 -0.065346936 5.356951003
PRIMCOORD
9 1 
Si     -0.12945      4.06891      5.29101         0.308370      1.633522      1.464977
Si     -1.06669      1.91652      3.57188        -2.525039      0.263122      0.207136
Si      1.31305      2.15046      1.78090         1.620889      1.420374      2.341621
O      1.43399      1.20269      0.57747         0.723637     -2.955658     -2.461639
O      0.40394      1.69895      3.02896         0.083049     -0.528496      0.086612
O      3.26997      0.45564      4.09918        -0.136058      0.189267      0.916328
O      0.79415      3.52178      1.20386        -1.487102      2.267286     -1.741460
O      2.75038      2.48512      2.46152         0.716193     -0.514603     -0.459145
O     -1.27401      3.13807      4.68463         0.706147     -1.794813     -0.328616
