
# total energy =    -71.71635897

CRYSTAL
PRIMVEC
 4.921275640 -0.000320975 0.000230892
 -2.456369429 4.259098229 0.000575878
 -0.010234125 -0.008166027 5.428487323
PRIMCOORD
9 1 
Si     -0.15732      4.22014      0.02213         0.805187      1.554485      1.090104
Si     -1.15511      2.00184      3.52127         0.320995     -0.932448      3.462878
Si      1.32072      2.26123      1.77984        -0.267181      0.386417      2.023849
O      1.31752      1.03797      0.80144        -0.090008     -1.534663     -1.942589
O      0.37292      1.87701      3.09058         1.329677     -0.334618     -1.207481
O      3.23338      0.63855      4.33964         0.731543      1.439007     -1.214678
O      0.88840      3.70659      1.21978        -0.842876     -0.175200     -1.031734
O      2.85932      2.36767      2.29627        -0.569532      0.848670     -0.603005
O     -1.06940      3.15817      4.71230        -1.392890     -1.235405     -0.538145
