
# total energy =    -71.69752073

CRYSTAL
PRIMVEC
 4.917096972 -0.000320703 0.000230696
 -2.451105410 4.237873628 0.000572681
 -0.022023329 -0.035951941 5.415621969
PRIMCOORD
9 1 
Si      2.39010      0.04716      0.04559        -0.857990      0.059603     -0.305860
Si      3.74172      1.91905      3.59756        -0.344237      0.652379      1.797508
Si      1.24428      2.28205      1.77074         0.381293      0.305923      0.387144
O      1.32400      1.19803      0.55445         0.869339     -0.470112     -0.393535
O      0.13579      1.62200      2.78593         2.760335      0.397082     -1.167886
O      3.34842      0.49011      4.27623        -0.257279      0.943868     -0.705546
O      0.91093      3.80530      1.23044         0.145531     -1.150406      1.227355
O      2.74003      2.48082      2.44903        -1.208668     -0.052149      0.544971
O     -0.81205      2.92029      4.90566        -1.501101     -0.698351     -1.377145
