
# total energy =    -71.75205811

CRYSTAL
PRIMVEC
 4.907459488 -0.000320074 0.000230244
 -2.445624037 4.224789969 0.000570815
 -0.026159489 -0.043343384 5.404537293
PRIMCOORD
9 1 
Si     -0.11665      4.12450      5.32938        -0.093406      1.200455      2.144146
Si      3.75508      1.88952      3.59869        -1.021812      0.795660      1.705921
Si      1.31805      2.27549      1.81680         1.148675     -1.161859      0.193071
O      1.59302      1.20892      0.58420        -1.137987      0.960601      0.894894
O      0.24851      1.67095      2.93765         2.640925      0.030724     -1.561340
O      3.28994      0.46020      4.20582         0.932396      0.651190     -1.355832
O      0.80521      3.64642      1.17445         0.140906     -0.213710      0.143957
O      2.75813      2.60244      2.58690        -2.169265     -0.370050     -1.698690
O     -1.14051      3.08042      4.76647        -0.437184     -1.935780     -0.455042
