
# total energy =    -71.87121650

CRYSTAL
PRIMVEC
 4.919134710 -0.000320835 0.000230791
 -2.452568792 4.243962329 0.000573600
 -0.017245840 -0.028202695 5.419691787
PRIMCOORD
9 1 
Si     -0.11807      4.16101      5.41317        -0.852997      1.914337      0.039607
Si      3.78490      1.87528      3.58191        -1.011981      1.346856      1.639830
Si      1.31853      2.30569      1.79479         0.164546     -0.200726      0.583173
O      1.53930      1.26520      0.56724        -0.887014      0.051015     -0.066218
O      0.26265      1.66311      2.90928         2.345915      0.017456     -1.514738
O      3.24373      0.52146      4.23486         0.637761     -0.470399     -0.422997
O      0.74783      3.78266      1.28823         1.164147     -1.981937      0.812809
O      2.76228      2.52388      2.53879        -1.319639      0.325653     -1.017048
O     -1.04500      3.03719      4.77737        -0.270555     -0.961930     -0.080932
