
# total energy =    -71.57352703

CRYSTAL
PRIMVEC
 4.904204134 -0.000319862 0.000230091
 -2.443947108 4.221448703 0.000570351
 -0.027245053 -0.043993954 5.401216159
PRIMCOORD
9 1 
Si     -0.14548      4.11628      5.34831         0.320235      2.142666      0.957355
Si      3.69550      1.88804      3.63965         1.256838      0.391598     -3.374942
Si      1.32466      2.27422      1.85189         0.107444      0.515970     -0.173368
O      1.61453      1.26730      0.65664        -0.217553     -2.271206     -2.319581
O      0.31416      1.66326      2.94741        -1.077717      0.180666      0.776476
O      3.34761      0.39745      4.14526        -1.256227      0.158465      0.679924
O      0.79355      3.63626      1.15682        -0.037478     -0.306179      0.239829
O      2.78137      2.64910      2.43400         0.974897     -1.242620      1.852312
O     -1.15830      3.04867      4.72322        -0.050347      0.411521      1.337274
