
# total energy =    -71.69850404

CRYSTAL
PRIMVEC
 4.925193619 -0.000321231 0.000231076
 -2.461423105 4.267153973 0.000576948
 -0.000734682 0.001195220 5.434579090
PRIMCOORD
9 1 
Si     -0.09602      4.21475      5.41455        -1.768004      0.529049     -0.109942
Si      3.78284      1.97530      3.58709        -0.507772      1.184430      0.798785
Si      1.35181      2.27687      1.87002         0.358766     -1.619105     -0.602777
O      1.41828      1.10060      0.72304         0.579501     -0.061640     -0.437609
O      0.35858      1.84768      3.06435         0.509268     -0.842579      0.168480
O      3.32606      0.51290      4.17858        -0.337404      0.636386      0.921229
O      0.70197      3.57834      1.25647        -0.382984      1.524810     -1.841457
O      2.81299      2.62384      2.43931         0.282271     -0.841643     -0.077638
O     -1.22256      3.25759      4.64064         1.262790     -0.527847      1.186661
