
# total energy =    -71.52030193

CRYSTAL
PRIMVEC
 4.903295280 -0.000319802 0.000230048
 -2.443532142 4.220512865 0.000570219
 -0.027644792 -0.044217084 5.400257438
PRIMCOORD
9 1 
Si     -0.14998      4.13177      5.36532         0.108611      1.068005     -0.226742
Si      3.68413      1.89291      3.63425         1.610558     -0.220521     -3.488178
Si      1.32934      2.27487      1.86193        -0.106841      0.457456     -0.749788
O      1.61641      1.26077      0.65404        -0.528971     -1.624708     -1.826042
O      0.32968      1.66363      2.95280        -1.438452      0.134625      0.946748
O      3.35353      0.38343      4.13164        -1.483330      0.406968      0.860150
O      0.78960      3.63039      1.15400         0.119689     -0.439076      0.458439
O      2.79060      2.64743      2.40655         1.260913     -1.169865      2.050276
O     -1.16958      3.03184      4.71892         0.475392      1.387631      1.986522
