
# total energy =    -71.75751843

CRYSTAL
PRIMVEC
 4.913100045 -0.000320442 0.000230508
 -2.448593648 4.231638098 0.000571787
 -0.024390180 -0.040433435 5.410635281
PRIMCOORD
9 1 
Si      2.37874      0.02151      0.01327         0.671736      0.606625     -0.874711
Si     -1.08472      1.99020      3.59800        -1.168960     -1.511720      2.323750
Si      1.34551      2.21276      1.72052        -0.982538      1.111072      2.141069
O      1.33572      1.17949      0.50482         0.772834     -0.400520     -0.032825
O      0.23451      1.64978      2.81590         1.217243      0.154880     -0.933367
O      3.26818      0.53828      4.20548         0.447984      0.489091      0.240169
O      0.85579      3.67775      1.20254         0.345244      0.076754      0.399584
O      2.63102      2.46088      2.67896        -0.617225      0.791505     -1.972937
O     -0.98530      3.00406      4.90051        -0.703323     -1.300845     -1.296091
