
# total energy =    -71.69089972

CRYSTAL
PRIMVEC
 4.877905365 -0.000318146 0.000228857
 -2.427780893 4.192097114 0.000566347
 -0.046778270 -0.055925695 5.371870664
PRIMCOORD
9 1 
Si     -0.17886      4.19094      0.00687         2.090628      1.973442      1.751092
Si     -1.13572      1.89878      3.53782        -0.020530     -0.729860      0.475956
Si      1.31471      2.28281      1.81643         1.494012     -1.631662     -0.527517
O      1.24067      1.07939      0.68794         0.417267      0.041587     -0.423723
O      0.36519      1.72191      3.00096         1.338910     -0.063354      0.084532
O      3.24343      0.49410      4.23949        -0.136805      1.187427     -0.753872
O      0.91178      3.67369      1.17624        -1.243645      0.807529     -0.663284
O      2.96043      2.36797      2.18620        -1.913538      0.134394      0.948218
O     -1.04066      2.99762      4.72616        -2.039867     -1.680660     -0.897975
