
# total energy =    -71.78403218

CRYSTAL
PRIMVEC
 4.919157666 -0.000320837 0.000230793
 -2.452602383 4.245375655 0.000573828
 -0.016229982 -0.026005026 5.420406470
PRIMCOORD
9 1 
Si     -0.12137      4.17058      5.37103        -1.137848      1.328482      2.616699
Si     -1.10698      1.88385      3.60611        -1.298591      1.225235      1.614931
Si      1.34716      2.29182      1.79946         0.277947     -0.248050      0.596653
O      1.52545      1.27763      0.53306        -0.458654     -0.056592      0.355913
O      0.29891      1.66028      2.94179         1.955854     -0.048937     -1.155783
O      3.21290      0.50527      4.22043         2.017154      0.736554     -1.671832
O      0.71014      3.71756      1.28471         0.693032     -0.888100     -0.112874
O      2.78543      2.55772      2.57976        -1.785390     -0.047060     -1.646639
O     -1.11401      3.09175      4.78714        -0.275065     -1.978161     -0.605706
