
# total energy =    -71.61575705

CRYSTAL
PRIMVEC
 4.919082689 -0.000320832 0.000230789
 -2.453339857 4.249990561 0.000574542
 -0.013101143 -0.018595530 5.422660145
PRIMCOORD
9 1 
Si      2.26786      0.00294      5.40790         1.067351     -0.760881     -2.284782
Si     -1.07273      1.99425      3.65492        -0.714152     -1.292251      0.020525
Si      1.40777      2.23054      1.82788        -1.689189      1.200782      0.152994
O      1.44238      1.27915      0.49995        -0.012711      0.119532      0.942691
O      0.41055      1.64688      3.03762         0.010894      0.729663     -0.634880
O      3.29728      0.46882      4.11129        -0.826824      0.862033      1.576559
O      0.63227      3.53651      1.14540         1.372772     -0.158197      1.495157
O      2.81241      2.60757      2.53367         0.018730     -0.430707     -0.868636
O     -1.23347      3.11921      4.84062         0.770829     -0.269188     -0.397025
