
# total energy =    -71.84592823

CRYSTAL
PRIMVEC
 4.910409320 -0.000320266 0.000230382
 -2.447129692 4.228191220 0.000571296
 -0.025172705 -0.042178832 5.407719656
PRIMCOORD
9 1 
Si     -0.08911      4.17991      5.38782        -0.735597     -0.827420     -0.669837
Si     -1.11698      1.92938      3.59625         0.168953      0.557829     -0.545604
Si      1.35200      2.23607      1.78173        -0.795667      0.184013     -1.059187
O      1.48441      1.19842      0.55015        -0.308940      0.179062      0.177312
O      0.31293      1.67968      2.84486        -2.277629     -0.529409      1.259832
O      3.27548      0.55272      4.19405        -0.093112     -1.644038      0.440827
O      0.82564      3.64556      1.19902        -0.009656      0.403499     -0.387108
O      2.61374      2.51878      2.65276         2.423419      0.317404     -0.109156
O     -1.13055      3.00628      4.80299         1.645131      1.342131      0.890595
