
# total energy =    -71.74131492

CRYSTAL
PRIMVEC
 4.916605072 -0.000320670 0.000230673
 -2.450655437 4.237103489 0.000572577
 -0.022593409 -0.036776327 5.415000489
PRIMCOORD
9 1 
Si      2.40280      0.05351      0.03235        -1.297655     -0.067363      0.093907
Si      3.75337      1.91761      3.64185         0.221862      1.772146     -1.340998
Si      1.24526      2.27017      1.77221         0.598115      0.492552     -0.376346
O      1.28888      1.18489      0.53325         1.379631     -0.506665     -0.388591
O      0.15547      1.61985      2.76197         0.750120      0.354264      0.289786
O      3.35060      0.52388      4.26024        -0.827395     -0.805110      0.243051
O      0.91150      3.79716      1.22161         0.066168     -1.020179      0.935127
O      2.71654      2.48728      2.45431         0.067787     -0.437329      1.415475
O     -0.82058      2.90860      4.90791        -0.964970      0.185222     -0.845329
