
# total energy =    -71.81421709

CRYSTAL
PRIMVEC
 4.923055794 -0.000321091 0.000230975
 -2.458682449 4.266499541 0.000576971
 -0.005881711 0.000632853 5.433286479
PRIMCOORD
9 1 
Si      2.26621      0.04014      0.01993         2.291688     -1.572876     -1.520574
Si     -1.11198      2.09157      3.63240         0.669971     -1.414166     -0.444106
Si      1.36461      2.20763      1.83199        -1.041063      0.127278     -1.432951
O      1.27074      1.02027      0.68758        -1.065625      1.683674      1.992959
O      0.42366      1.78523      3.08035        -0.895078      0.436876      0.361891
O      3.23149      0.78848      4.36090        -0.469422     -1.249508      0.285530
O      0.85122      3.50039      0.97901         0.024142      0.281441      1.036618
O      2.87415      2.36722      2.34098         0.409110      0.660809     -0.206609
O     -1.15958      3.20000      4.75934         0.086225      1.053711     -0.052696
