
# total energy =    -71.91170103

CRYSTAL
PRIMVEC
 4.919061269 -0.000320831 0.000230788
 -2.452642107 4.246627982 0.000574029
 -0.015323411 -0.023964109 5.420968949
PRIMCOORD
9 1 
Si     -0.13848      4.19694      5.36538        -0.584972      0.270511      2.123828
Si     -1.09975      1.90751      3.64656         0.077306      1.036424     -1.178436
Si      1.37498      2.27661      1.81101        -0.067009     -0.362355      0.048035
O      1.50243      1.28671      0.51113         0.031133     -0.467073      0.281305
O      0.37318      1.65676      2.94387        -1.175664     -0.124039      0.737475
O      3.22820      0.50405      4.17452         0.926467     -0.192585     -0.196156
O      0.69409      3.64071      1.27996        -0.270763      0.887711     -1.428854
O      2.76715      2.58600      2.57881         0.228012     -0.546700     -0.683109
O     -1.17779      3.09676      4.78374         0.858100     -0.535445      0.295806
