
# total energy =    -71.77849118

CRYSTAL
PRIMVEC
 4.919162912 -0.000320837 0.000230793
 -2.452585861 4.244360323 0.000573664
 -0.016956194 -0.027595072 5.419906786
PRIMCOORD
9 1 
Si     -0.11725      4.16058      5.39893        -0.973247      1.927201      0.876471
Si      3.79537      1.87542      3.58515        -1.501626      1.302431      2.186118
Si      1.32626      2.30206      1.79496         0.244987     -0.193685      0.682287
O      1.53761      1.26848      0.55689        -0.808934      0.104405      0.138033
O      0.26433      1.66237      2.92381         2.943448     -0.016264     -1.802003
O      3.23062      0.51606      4.23436         1.214284      0.061499     -0.993513
O      0.73366      3.76926      1.28531         1.205753     -1.898850      0.787132
O      2.77470      2.53280      2.55517        -1.847087      0.296355     -1.459799
O     -1.06337      3.05797      4.78169        -0.434108     -1.585033     -0.424397
