
# total energy =    -71.91673552

CRYSTAL
PRIMVEC
 4.919114264 -0.000320834 0.000230791
 -2.452557141 4.243764730 0.000573569
 -0.017391997 -0.028501094 5.419580743
PRIMCOORD
9 1 
Si     -0.10154      4.19073      0.00080        -0.763031      1.838356     -0.299384
Si      3.77910      1.87590      3.58119        -0.702835      1.350765      1.218648
Si      1.31475      2.30741      1.79501         0.119123     -0.205133      0.497762
O      1.53936      1.26361      0.57238        -0.907360     -0.004072     -0.216096
O      0.26404      1.66350      2.90059         1.873765      0.017443     -1.242184
O      3.25094      0.52382      4.23464         0.356663     -0.744832     -0.129281
O      0.75598      3.78757      1.29042         1.080647     -1.943388      0.718524
O      2.75478      2.51971      2.52960        -0.938404      0.330354     -0.702343
O     -1.03609      3.02583      4.77508        -0.171666     -0.594506      0.129920
