
# total energy =    -71.60077273

CRYSTAL
PRIMVEC
 4.919108952 -0.000320834 0.000230790
 -2.453401929 4.250207544 0.000574575
 -0.012996517 -0.018294594 5.422783423
PRIMCOORD
9 1 
Si      2.26759      0.00336      5.40683         1.029665     -0.580866     -2.263076
Si     -1.07119      1.99721      3.65083        -0.907958     -1.286614      0.460965
Si      1.40502      2.22943      1.82796        -1.557553      1.283019      0.258172
O      1.43852      1.27888      0.50339         0.043966      0.016033      0.912729
O      0.40570      1.64828      3.04575         0.383752      0.745265     -0.882493
O      3.29786      0.46673      4.11572        -0.773151      1.035998      1.440304
O      0.63076      3.53323      1.13711         1.507783     -0.250624      1.749694
O      2.82150      2.60648      2.52935        -0.326309     -0.422915     -1.010595
O     -1.23066      3.12349      4.84718         0.609590     -0.546232     -0.697066
