
# total energy =    -71.64469321

CRYSTAL
PRIMVEC
 4.842185718 -0.000315817 0.000227181
 -2.404745325 4.143243210 0.000559500
 -0.074117366 -0.085701348 5.323377449
PRIMCOORD
9 1 
Si     -0.17039      4.12757      0.02304         2.216210      2.015660      0.420824
Si     -1.07154      1.79474      3.49054        -1.182081     -1.719008      0.144470
Si      1.28916      2.33109      1.76355         1.255406     -1.941416     -0.346121
O      1.34809      1.27120      0.46529        -0.295006      0.305742      0.126999
O      0.36584      1.51344      2.82019         0.159180      0.349508      0.399359
O      3.20413      0.33898      4.11687        -0.096055      0.910271      0.129858
O      0.80104      3.81704      1.40757        -1.309295     -0.213717     -1.995801
O      2.83330      2.40894      2.29351        -0.070800      0.198976      0.925576
O     -0.99486      2.75661      4.79134        -0.680458      0.096650      0.179941
