
# total energy =    -71.68431870

CRYSTAL
PRIMVEC
 4.923764254 -0.000321137 0.000231009
 -2.459559971 4.267489995 0.000577090
 -0.004145710 0.001682886 5.434064208
PRIMCOORD
9 1 
Si     -0.14610      4.26694      5.39844        -1.841396      0.677256      1.003307
Si     -1.08615      2.05269      3.59268        -1.992312      0.740573      1.686089
Si      1.31106      2.23018      1.85247         1.459021     -0.103519      0.569937
O      1.38254      1.13623      0.73264         0.589740     -3.023266     -1.435617
O      0.41943      1.77650      3.14934         0.731241      0.288809     -0.718370
O      3.25379      0.74862      4.35991         0.599600     -0.315391     -1.003697
O      0.75606      3.42759      0.98897        -0.071155      1.738213      0.833779
O      2.86213      2.45729      2.35328        -0.059689      0.208766      0.259782
O     -1.22535      3.22954      4.76317         0.602067     -0.213363     -1.259184
