
# total energy =    -72.01248166

CRYSTAL
PRIMVEC
 4.894904936 -0.000319255 0.000229655
 -2.438480095 4.212064436 0.000569085
 -0.033696221 -0.046640194 5.391296245
PRIMCOORD
9 1 
Si     -0.14584      4.14647      5.35247        -1.326074      1.129928      1.378383
Si     -1.09177      1.89984      3.57748        -0.886709      1.357529      0.046054
Si      1.35982      2.23968      1.82850        -0.320052      0.905444     -0.690437
O      1.37334      1.23836      0.59358         0.828788     -2.390152     -1.558774
O      0.40857      1.70694      3.02210        -0.194766     -0.234042      0.381046
O      3.16473      0.52519      4.11910         0.183511     -0.596724      0.210125
O      0.77013      3.63114      1.20223         0.213772      0.329814      0.053678
O      2.85061      2.48546      2.35166         1.181479     -0.103298      1.206486
O     -1.15555      2.98307      4.83880         0.309364     -0.387361     -1.014781
