
# total energy =    -71.90934450

CRYSTAL
PRIMVEC
 4.925460550 -0.000321248 0.000231088
 -2.461827955 4.267031787 0.000576909
 -0.000659527 0.000546941 5.434671326
PRIMCOORD
9 1 
Si     -0.10916      4.24815      0.01981        -1.465054     -0.148628     -2.701186
Si     -1.12983      1.97562      3.59735        -0.448964      0.882074      1.201399
Si      1.33003      2.28529      1.86191         0.752763     -0.743196     -2.863142
O      1.39898      1.09347      0.63001        -0.857181      2.588828      1.857407
O      0.36072      1.79904      3.00613        -0.660176     -0.699611      0.803455
O      3.28759      0.56029      4.21688        -0.000212      0.137285      0.300345
O      0.74084      3.65713      1.19312         1.598424     -1.285652      1.395853
O      2.80647      2.56169      2.44100         0.156258     -0.295975     -0.156148
O     -1.15910      3.17022      4.74222         0.907129     -0.407453      0.138807
