
# total energy =    -71.78922259

CRYSTAL
PRIMVEC
 4.910623717 -0.000320280 0.000230392
 -2.447231991 4.228456703 0.000571334
 -0.025092639 -0.042052339 5.407959543
PRIMCOORD
9 1 
Si     -0.08840      4.18243      5.39266        -0.717192     -0.652725     -0.755256
Si     -1.11448      1.93398      3.59778         0.190364      0.497493     -0.820256
Si      1.35506      2.23151      1.77741        -1.087820      0.468621     -1.052732
O      1.47141      1.20256      0.55166        -0.035995     -0.281068     -0.250447
O      0.31725      1.67906      2.83724        -2.673149     -0.554453      1.529353
O      3.27617      0.55723      4.19142        -0.227439     -1.758714      0.648138
O      0.82776      3.64608      1.20033        -0.035569      0.461639     -0.425497
O      2.60239      2.51253      2.65326         2.996436      0.368790      0.247447
O     -1.12452      3.00198      4.80828         1.617462      1.443843      0.894705
