
# total energy =    -71.79621189

CRYSTAL
PRIMVEC
 4.923124228 -0.000321096 0.000230979
 -2.458766226 4.266590926 0.000576981
 -0.005753098 0.000731288 5.433354097
PRIMCOORD
9 1 
Si      2.26849      0.03835      0.01945         2.141441     -1.513103     -1.749826
Si     -1.10870      2.08997      3.62565         0.452262     -1.213777      0.147632
Si      1.36161      2.20896      1.83787        -0.968405      0.132163     -1.750047
O      1.28264      1.02382      0.68351        -1.266536      1.944080      2.224618
O      0.42322      1.78315      3.08636        -0.750861      0.423114      0.249839
O      3.23264      0.78818      4.36283        -0.371094     -1.139662      0.154319
O      0.83980      3.49763      0.97036         0.370543     -0.057679      1.422492
O      2.87349      2.37108      2.34343         0.304447      0.693218     -0.307041
O     -1.16473      3.20236      4.76456         0.078907      0.752573     -0.377955
