
# total energy =    -71.63225802

CRYSTAL
PRIMVEC
 4.919020698 -0.000320828 0.000230786
 -2.453156233 4.249350608 0.000574447
 -0.013447277 -0.019526717 5.422304655
PRIMCOORD
9 1 
Si      2.27087     -0.00011      5.40648         1.120725     -1.167049     -1.976589
Si     -1.07860      1.98268      3.66667        -0.188673     -1.226234     -1.274476
Si      1.41239      2.23619      1.82776        -1.926764      0.852082     -0.257623
O      1.45381      1.28054      0.49312        -0.100804      0.234683      0.990505
O      0.42420      1.64522      3.01152        -1.083355      0.579185      0.091901
O      3.29247      0.47774      4.10390        -0.892564      0.307601      1.782262
O      0.64135      3.54611      1.17500         0.807746      0.323986      0.572981
O      2.78603      2.60924      2.54385         1.067033     -0.438865     -0.401424
O     -1.23876      3.10603      4.82020         1.190194      0.524131      0.434233
