
# total energy =    -71.72187474

CRYSTAL
PRIMVEC
 4.871381365 -0.000317721 0.000228551
 -2.423288622 4.182565605 0.000565011
 -0.051491332 -0.061863240 5.363153029
PRIMCOORD
9 1 
Si      2.30212     -0.05585      5.33639        -1.039649     -2.250653     -1.351612
Si      3.72148      1.87890      3.52951         1.342161      0.917261      2.242363
Si      1.33165      2.21757      1.81578        -0.572784     -0.516513     -1.457141
O      1.45047      1.07933      0.61842        -2.243269      3.236444      1.820621
O      0.40015      1.69814      3.04165        -0.313223      0.031159     -0.393802
O      3.26282      0.47047      4.17395         0.517062      0.391374     -0.764662
O      0.82773      3.63107      1.17348         0.743714     -1.372482      0.803674
O      2.80634      2.41763      2.37022         0.088848      0.460301     -0.924284
O     -1.26223      3.11093      4.65898         1.464823     -0.895722      0.022739
