
# total energy =    -72.07207674

CRYSTAL
PRIMVEC
 4.925476484 -0.000321249 0.000231089
 -2.461852523 4.267028685 0.000576908
 -0.000654092 0.000518079 5.434677699
PRIMCOORD
9 1 
Si     -0.11967      4.25453      0.01567        -1.009434     -0.170339     -1.977206
Si     -1.13007      1.98062      3.60496        -0.305848      0.614513      0.899014
Si      1.32983      2.28208      1.84774         0.503341     -0.589139     -2.189471
O      1.39047      1.11081      0.62586        -0.665390      2.027408      1.499242
O      0.35680      1.78352      3.00221        -0.481831     -0.485612      0.560204
O      3.27999      0.57071      4.22771         0.011582      0.103208      0.195852
O      0.75876      3.66485      1.18848         1.210423     -1.007645      1.072828
O      2.80710      2.54684      2.44009         0.102443     -0.186419     -0.114034
O     -1.13836      3.15053      4.76388         0.626117     -0.288852      0.056613
