
# total energy =    -71.53315451

CRYSTAL
PRIMVEC
 4.924981958 -0.000321217 0.000231066
 -2.461098866 4.267284822 0.000576985
 -0.000867518 0.001783967 5.434538330
PRIMCOORD
9 1 
Si     -0.11971      4.20398      5.37901        -0.574573      1.070706      1.718139
Si      3.76683      1.99582      3.59792         0.254455      0.363857      0.170244
Si      1.37191      2.24850      1.85325        -0.841187      0.582782      1.801636
O      1.43625      1.12172      0.77595         0.937769     -2.518862     -2.771699
O      0.36352      1.84772      3.10736         0.930823     -0.522536     -0.497101
O      3.33861      0.50393      4.18268        -0.453679      1.163443      0.853699
O      0.68536      3.56050      1.25830        -0.625395      1.443746     -2.323942
O      2.82478      2.63488      2.43507         0.016890     -0.840186     -0.166391
O     -1.21887      3.28859      4.61544         0.378492     -0.750824      1.224417
