
# total energy =    -71.61094428

CRYSTAL
PRIMVEC
 4.925089270 -0.000321224 0.000231071
 -2.461262797 4.267216821 0.000576966
 -0.000785601 0.001487724 5.434554907
PRIMCOORD
9 1 
Si     -0.10591      4.20816      5.39531        -1.261651      0.776880      0.983345
Si      3.77512      1.98427      3.59180        -0.193882      0.847510      0.457433
Si      1.36217      2.26382      1.86043        -0.191319     -0.775110      0.806012
O      1.42490      1.11510      0.75412         0.889955     -1.481245     -1.709883
O      0.35878      1.84956      3.08646         0.859737     -0.684828     -0.242043
O      3.33347      0.50599      4.17815        -0.416542      0.888403      0.910965
O      0.69566      3.56447      1.26377        -0.775955      1.887479     -2.388809
O      2.81844      2.63172      2.43747         0.175996     -0.874729     -0.101458
O     -1.22314      3.27466      4.62453         0.916984     -0.565994      1.297353
