
# total energy =    -71.93391443

CRYSTAL
PRIMVEC
 4.924178664 -0.000321164 0.000231028
 -2.460143309 4.267744213 0.000577104
 -0.002752696 0.002371190 5.434395296
PRIMCOORD
9 1 
Si     -0.16313      4.25034      5.37185         0.442743     -0.618451      0.232651
Si     -1.13890      2.04325      3.63048         0.576374     -0.022557     -1.517932
Si      1.32559      2.23515      1.86615         0.991939     -0.500506     -0.772963
O      1.48711      1.07337      0.72413        -1.354808      1.169054      0.895747
O      0.44689      1.79649      3.15922        -1.149723      0.136552     -0.058060
O      3.30764      0.66562      4.28902        -0.374943     -0.817195      0.147667
O      0.69070      3.48064      1.08882         0.227261      0.363224     -0.110433
O      2.84802      2.55620      2.37599         0.133344     -0.480239      0.317787
O     -1.23319      3.24754      4.66869         0.563169      0.795238      0.852464
