
# total energy =    -71.73939164

CRYSTAL
PRIMVEC
 4.918190508 -0.000320774 0.000230747
 -2.452030127 4.240119308 0.000573002
 -0.020257045 -0.033401348 5.417240766
PRIMCOORD
9 1 
Si      2.34511      0.02514      0.06831         1.316726     -1.003194     -1.207674
Si      3.71165      1.92501      3.54829         1.762797     -1.282526      2.337718
Si      1.25400      2.31521      1.78196         0.735443     -1.002250      0.301900
O      1.44502      1.22053      0.59501        -0.722917      0.275483     -0.392766
O      0.21366      1.64545      2.79513        -0.278322      0.022529      0.458769
O      3.33491      0.46334      4.27712        -0.246799      1.477182     -0.664521
O      0.90399      3.78686      1.29647        -1.187412      0.675582     -0.943103
O      2.72837      2.47262      2.44163        -0.498799      0.496324      0.190574
O     -0.86287      2.91906      4.83746        -0.881733      0.363319     -0.079765
