
# total energy =    -71.94083706

CRYSTAL
PRIMVEC
 4.920606662 -0.000320931 0.000230861
 -2.455391447 4.256807475 0.000575552
 -0.010943223 -0.010903319 5.426936189
PRIMCOORD
9 1 
Si     -0.15973      4.23138      5.40007        -0.195023      0.066349     -0.678316
Si      3.75697      1.98440      3.59730         1.337851      0.946084     -1.006969
Si      1.32359      2.27153      1.84240        -0.226965     -0.384636     -1.451064
O      1.40925      1.08282      0.68803        -1.406158      1.540350      0.714261
O      0.40540      1.80345      3.10495        -0.243755      0.044005     -0.538186
O      3.28491      0.66010      4.28923        -0.953326     -2.012260      0.379437
O      0.75885      3.65807      1.14302         1.426612     -1.721684      1.395075
O      2.86605      2.44373      2.30775         0.233290      0.287207      0.796570
O     -1.11661      3.08427      4.76064        -0.011082      1.212722      0.375988
