
# total energy =    -71.72677736

CRYSTAL
PRIMVEC
 4.916976794 -0.000320695 0.000230690
 -2.450993996 4.237679339 0.000572655
 -0.022171306 -0.036164568 5.415468135
PRIMCOORD
9 1 
Si      2.39383      0.04872      0.04236        -0.996340      0.067860     -0.217340
Si      3.74472      1.91810      3.60836        -0.263305      0.938989      1.071563
Si      1.24430      2.27886      1.77106         0.416578      0.384700      0.222376
O      1.31422      1.19522      0.54955         1.007899     -0.517533     -0.439134
O      0.13890      1.62110      2.78050         2.341372      0.400554     -0.851637
O      3.34940      0.49831      4.27253        -0.389709      0.557610     -0.484176
O      0.91093      3.80430      1.22718         0.165471     -1.171535      1.199396
O      2.73477      2.48264      2.44949        -0.895856     -0.163636      0.805247
O     -0.81301      2.91771      4.90733        -1.396034     -0.537425     -1.303868
