
# total energy =    -71.95180867

CRYSTAL
PRIMVEC
 4.919089872 -0.000320832 0.000230789
 -2.452543395 4.243567800 0.000573537
 -0.017539467 -0.028796185 5.419467337
PRIMCOORD
9 1 
Si     -0.10251      4.19288      0.00802        -0.646778      1.722163     -0.604582
Si      3.77305      1.87698      3.58088        -0.351395      1.330642      0.766252
Si      1.31101      2.30906      1.79541         0.064166     -0.218793      0.371075
O      1.53886      1.26202      0.57739        -0.919214     -0.058643     -0.325476
O      0.26656      1.66390      2.89115         1.334419      0.007719     -0.934161
O      3.25837      0.52574      4.23434         0.091875     -0.996507      0.131179
O      0.76479      3.79131      1.29305         0.961396     -1.864759      0.608305
O      2.74671      2.51575      2.51999        -0.520563      0.315665     -0.393640
O     -1.02729      3.01412      4.77286        -0.055057     -0.195209      0.361394
