
# total energy =    -71.74463843

CRYSTAL
PRIMVEC
 4.921195498 -0.000320970 0.000230888
 -2.456225072 4.258725777 0.000575824
 -0.010306635 -0.008592517 5.428248023
PRIMCOORD
9 1 
Si     -0.15791      4.21856      0.01231         0.818434      1.768842      1.037808
Si     -1.15901      2.00086      3.52368         0.497500     -0.903444      3.728570
Si      1.32324      2.26207      1.78757        -0.483082      0.466902      1.651073
O      1.33681      1.04685      0.78775        -0.301370     -1.109033     -1.571322
O      0.37007      1.86548      3.10190         1.596678     -0.233166     -1.487840
O      3.24040      0.63838      4.33694         0.642808      1.311966     -1.242957
O      0.86410      3.70678      1.20460        -0.260581     -0.783461     -0.386526
O      2.86534      2.37503      2.30171        -0.921561      0.962942     -0.829090
O     -1.06910      3.15229      4.72512        -1.588786     -1.476395     -0.865341
