
# total energy =    -71.82246188

CRYSTAL
PRIMVEC
 4.922847470 -0.000321078 0.000230966
 -2.458424989 4.266199780 0.000576934
 -0.006263902 0.000295892 5.433068268
PRIMCOORD
9 1 
Si      2.26414      0.04234      0.01863         2.197246     -1.308507     -0.537977
Si     -1.12019      2.09315      3.65087         1.142868     -1.937762     -2.185607
Si      1.37142      2.20387      1.81196        -1.078380      0.127422     -0.174264
O      1.23182      1.01483      0.70612        -0.164933      0.453580      0.802165
O      0.42146      1.79302      3.06393        -1.155700      0.446786      0.690748
O      3.22616      0.78465      4.35645        -0.629416     -1.372272      0.624606
O      0.88476      3.51049      1.00769        -0.914902      1.258797     -0.148392
O      2.87780      2.35791      2.33311         0.575743      0.553134      0.064567
O     -1.14381      3.19736      4.74430         0.064045      1.772116      0.872072
