
# total energy =    -71.72595280

CRYSTAL
PRIMVEC
 4.914309915 -0.000320521 0.000230565
 -2.449257497 4.233429639 0.000572046
 -0.024164949 -0.039517123 5.412042090
PRIMCOORD
9 1 
Si      2.38577      0.04813      0.00670         0.650916     -0.637704      0.349261
Si     -1.09203      1.99045      3.63781        -1.242439     -1.723410      1.100826
Si      1.30591      2.23531      1.73063        -0.004631     -0.484132      0.918339
O      1.29095      1.12925      0.45511         0.246608      1.847000      1.992312
O      0.19097      1.63277      2.79077         1.738666      0.263735     -0.916983
O      3.27599      0.52750      4.23387         1.065551      1.205233     -0.781543
O      0.88388      3.70753      1.21305        -0.101325      0.229250      0.026883
O      2.67559      2.46498      2.63281        -1.401184      0.414817     -1.655247
O     -0.91159      2.97340      4.91554        -0.916220     -1.099267     -0.986254
