
# total energy =    -71.62109331

CRYSTAL
PRIMVEC
 4.886680312 -0.000318719 0.000229269
 -2.433338788 4.203800229 0.000567985
 -0.040352046 -0.049709565 5.382655297
PRIMCOORD
9 1 
Si      2.26779      0.02555      0.00675         0.456109      0.631927      1.420375
Si     -1.02185      1.90803      3.56912        -0.986218     -0.038129      1.061994
Si      1.38088      2.22910      1.68693        -0.332312      0.046151      2.766607
O      1.12344      1.10148      0.55681         1.401246     -0.282280      0.072685
O      0.49446      1.72574      3.04953        -0.092299      0.111517     -0.849398
O      3.04548      0.61293      4.18524         1.626671      0.392233     -0.589660
O      0.83159      3.68355      1.24367        -0.453448      0.614835     -0.989112
O      2.88723      2.35994      2.35381        -0.520986      0.511757     -1.171836
O     -1.04330      2.96088      4.86751        -1.097464     -1.971661     -1.737057
