
# total energy =    -71.71645941

CRYSTAL
PRIMVEC
 4.918413314 -0.000320788 0.000230758
 -2.452171180 4.240749625 0.000573097
 -0.019762245 -0.032643617 5.417663740
PRIMCOORD
9 1 
Si      2.33881      0.01388      0.06740         1.427740     -0.928781     -1.358960
Si      3.71201      1.91923      3.55672         1.769487     -1.065711      0.694110
Si      1.26109      2.31926      1.78889         0.722519     -1.002576     -0.355159
O      1.47316      1.22838      0.60189        -0.889924      0.175175     -0.602116
O      0.24940      1.65393      2.79305        -1.883215     -0.317068      1.431887
O      3.32975      0.47755      4.26590        -0.492641      0.727296     -0.186551
O      0.89183      3.78363      1.31083        -1.388514      0.923504     -1.409195
O      2.70929      2.47681      2.43803         1.097149      0.321137      1.083536
O     -0.89186      2.91679      4.81147        -0.363018      1.168715      0.699578
