
# total energy =    -71.68431829

CRYSTAL
PRIMVEC
 4.877042240 -0.000318090 0.000228817
 -2.427145169 4.190904861 0.000566183
 -0.047306638 -0.056620485 5.370779098
PRIMCOORD
9 1 
Si     -0.21277      4.11969      5.36101         1.691528      2.604672      2.414122
Si      3.72410      1.89753      3.55050         0.701872     -0.678449     -0.782750
Si      1.31768      2.27976      1.81314         1.142889     -1.362318      0.358375
O      1.26504      1.10176      0.71043         0.712196     -1.343481     -1.670716
O      0.36445      1.71331      3.00726         0.944626      0.148778      0.092228
O      3.25826      0.49402      4.23031        -0.466004      0.682089     -0.353475
O      0.91066      3.66912      1.17972        -1.426370      1.035015     -0.970275
O      2.94419      2.37100      2.19210        -1.389016      0.122846      1.240025
O     -1.05906      3.00833      4.70320        -1.946693     -1.174349     -0.334163
