
# total energy =    -71.72621945

CRYSTAL
PRIMVEC
 4.853283554 -0.000316540 0.000227702
 -2.411395867 4.158211544 0.000561617
 -0.065283582 -0.076538360 5.338695184
PRIMCOORD
9 1 
Si      2.26604     -0.02790      5.28126        -1.365058     -1.220413      2.178139
Si     -1.12239      1.84003      3.55022         1.329880      1.890570      0.252781
Si      1.34657      2.20150      1.75334        -0.250212      0.225757      2.466316
O      1.37849      1.29975      0.47403         1.139551     -2.720268     -1.886039
O      0.36838      1.58874      2.94180         0.406336      0.086935     -0.288181
O      3.25945      0.43546      4.13125        -0.140321     -0.713589     -0.240871
O      0.69910      3.52999      1.23567        -0.644748      3.184125     -0.911758
O      2.81565      2.50877      2.39378        -0.465566     -0.519544     -0.013845
O     -1.11365      2.89067      4.85011         0.005615     -0.215977     -1.516193
