
# total energy =    -71.64612470

CRYSTAL
PRIMVEC
 4.924730577 -0.000321200 0.000231054
 -2.460751750 4.267450789 0.000577028
 -0.001242989 0.002325816 5.434516630
PRIMCOORD
9 1 
Si     -0.15495      4.20839      5.36281         1.108155      1.395113      1.659890
Si      3.75306      2.02433      3.61359         1.253138     -0.730088     -0.058768
Si      1.38130      2.22414      1.85754        -1.880226      1.653597      0.702342
O      1.47942      1.08649      0.76945        -0.169913     -0.686598     -1.513948
O      0.39202      1.83381      3.14402         0.308222     -0.158606     -0.778209
O      3.34080      0.52529      4.20940        -0.432551      1.457697      0.375326
O      0.65370      3.57183      1.20316         0.910599     -1.040591     -0.485284
O      2.83849      2.62555      2.42499        -0.244553     -0.587530     -0.391163
O     -1.20659      3.30265      4.61693        -0.807246     -1.291849      0.467182
