
# total energy =    -71.64951081

CRYSTAL
PRIMVEC
 4.856143695 -0.000316727 0.000227836
 -2.413066466 4.162080396 0.000562166
 -0.063006274 -0.074191112 5.342545839
PRIMCOORD
9 1 
Si      2.27909     -0.03512      5.25354        -1.109991     -1.470790      3.338453
Si     -1.12992      1.86872      3.57678         1.818182      1.275591      0.167765
Si      1.36508      2.18811      1.77032        -0.791088     -0.998299      0.860343
O      1.39114      1.25730      0.43226         0.720679     -0.666167      0.555924
O      0.37315      1.60926      2.98056         0.367752      0.095330     -0.592202
O      3.25345      0.45117      4.13233         0.654603     -0.349697     -0.903526
O      0.69792      3.48379      1.21672        -0.866593      3.516665     -1.380271
O      2.80069      2.51741      2.44110        -0.460473     -0.360033     -0.641768
O     -1.13823      2.95326      4.82310        -0.339799     -1.042528     -1.404203
