
# total energy =    -71.52383145

CRYSTAL
PRIMVEC
 4.924946022 -0.000321214 0.000231064
 -2.461045095 4.267307961 0.000576991
 -0.000903807 0.001877817 5.434534272
PRIMCOORD
9 1 
Si     -0.12482      4.20327      5.37466        -0.330452      1.167071      1.878913
Si      3.76416      1.99999      3.60012         0.420195      0.193286      0.119272
Si      1.37467      2.24358      1.85196        -1.072026      0.996225      1.948656
O      1.44117      1.12112      0.78013         0.893397     -2.670559     -2.912857
O      0.36621      1.84643      3.11379         0.893520     -0.468938     -0.592552
O      3.33978      0.50457      4.18525        -0.465104      1.237253      0.783424
O      0.68109      3.56109      1.25361        -0.485085      1.175127     -2.146108
O      2.82695      2.63491      2.43409        -0.035158     -0.809807     -0.199698
O     -1.21684      3.29238      4.61392         0.190333     -0.817870      1.130930
