
# total energy =    -71.72718677

CRYSTAL
PRIMVEC
 4.868948807 -0.000317562 0.000228437
 -2.421504463 4.179245263 0.000564556
 -0.053344555 -0.063753983 5.359904777
PRIMCOORD
9 1 
Si     -0.12217      4.10033      5.30721        -0.508002     -0.556434      0.951944
Si     -1.09781      1.89329      3.53861        -1.213787      0.876908      1.938871
Si      1.31292      2.18351      1.79314         1.418400     -0.437087      0.661572
O      1.45009      1.14224      0.59662        -0.521171      0.090700     -0.084728
O      0.40153      1.70318      3.03699         0.108647     -0.398540     -0.161021
O      3.25982      0.45471      4.13630         0.594610      0.665153     -0.209128
O      0.82307      3.55336      1.20702        -1.278372      1.853154     -1.624832
O      2.77478      2.45501      2.43089         0.090714     -0.126290     -0.917179
O     -1.28505      3.14928      4.67916         1.325034     -1.987808     -0.563528
