
# total energy =    -71.68619040

CRYSTAL
PRIMVEC
 4.877617978 -0.000318128 0.000228844
 -2.427567396 4.191703160 0.000566293
 -0.046952331 -0.056152799 5.371508619
PRIMCOORD
9 1 
Si     -0.22202      4.12910      5.37210         2.013410      2.304188      2.066630
Si     -1.14156      1.89872      3.54199         0.201229     -0.722689      0.096048
Si      1.31523      2.28233      1.81538         1.413090     -1.608232     -0.226123
O      1.24845      1.08721      0.69603         0.539116     -0.442300     -0.832216
O      0.36423      1.71903      3.00301         1.224241      0.008647      0.067370
O      3.24855      0.49348      4.23679        -0.242110      1.052778     -0.634039
O      0.91223      3.67159      1.17790        -1.340654      0.942376     -0.796808
O      2.95605      2.36890      2.18752        -1.763799      0.132377      1.046580
O     -1.04555      3.00214      4.71894        -2.078358     -1.626784     -0.772204
