
# total energy =    -71.67345078

CRYSTAL
PRIMVEC
 4.925159410 -0.000321228 0.000231074
 -2.461370671 4.267174048 0.000576954
 -0.000748947 0.001290291 5.434570236
PRIMCOORD
9 1 
Si     -0.09878      4.21233      5.40799        -1.624812      0.606265      0.286006
Si      3.78040      1.97793      3.58844        -0.427317      1.094571      0.686023
Si      1.35522      2.27298      1.86680         0.189724     -1.432385     -0.107948
O      1.42004      1.10586      0.73401         0.711479     -0.544927     -0.858876
O      0.35823      1.84877      3.07173         0.652878     -0.792444      0.023836
O      3.32876      0.51014      4.17788        -0.363239      0.716774      0.921313
O      0.70024      3.57265      1.26021        -0.576251      1.737755     -2.098020
O      2.81466      2.62698      2.43875         0.254006     -0.859921     -0.080694
O     -1.22343      3.26360      4.63451         1.169484     -0.530083      1.241053
