
# total energy =    -71.65959355

CRYSTAL
PRIMVEC
 4.924582868 -0.000321191 0.000231047
 -2.460586788 4.267552873 0.000577052
 -0.001596559 0.002485453 5.434501644
PRIMCOORD
9 1 
Si     -0.16875      4.22083      5.36638         1.710588      0.500733      0.289334
Si     -1.17111      2.03654      3.62192         1.411364     -1.052356     -0.256804
Si      1.37349      2.22217      1.86742        -1.653023      1.027765     -0.817320
O      1.50415      1.05197      0.74173        -1.540233      2.073133      0.724358
O      0.41367      1.82298      3.15515        -0.248589     -0.003794     -0.706331
O      3.33608      0.55613      4.23074        -0.388969      1.167190      0.127148
O      0.64421      3.56971      1.16109         1.743819     -2.143203      0.699857
O      2.84342      2.61183      2.41455        -0.247617     -0.492873     -0.404089
O     -1.20800      3.29472      4.62578        -0.795331     -1.059310      0.340363
