
# total energy =    -71.75586479

CRYSTAL
PRIMVEC
 4.922473747 -0.000321053 0.000230948
 -2.457966387 4.265459368 0.000576835
 -0.007020578 -0.000588987 5.432557119
PRIMCOORD
9 1 
Si      2.27845      0.03639      0.01465         1.010794     -0.283258      1.629705
Si     -1.12578      2.07794      3.66528         1.176097     -1.667499     -2.879514
Si      1.37547      2.19798      1.77419        -0.826788      0.618125      1.968947
O      1.15642      1.00411      0.74924         1.465390     -1.637353     -1.373437
O      0.39889      1.81558      3.04279        -0.726570      0.352384      0.759406
O      3.20643      0.75663      4.35698        -0.013642     -0.316846      0.185560
O      0.93409      3.55391      1.05881        -1.674841      1.833736     -1.227138
O      2.89351      2.34752      2.31915         0.088372      0.322147      0.230329
O     -1.11256      3.21951      4.72920        -0.510462      0.790268      0.693642
