
# total energy =    -71.87336063

CRYSTAL
PRIMVEC
 4.848885491 -0.000316254 0.000227496
 -2.408862496 4.152119471 0.000560747
 -0.068795698 -0.080127708 5.332634041
PRIMCOORD
9 1 
Si      2.28673      0.03713      0.02175        -0.309305     -0.790286     -3.148906
Si     -1.08687      1.83275      3.51774        -0.692325     -0.357000      0.559100
Si      1.31301      2.23252      1.77213         0.325744      1.550354     -0.851981
O      1.39470      1.27230      0.47350        -0.815690      0.382499     -0.119133
O      0.37440      1.56087      2.87456        -0.223710     -0.100597      0.479364
O      3.25912      0.38799      4.12140        -0.753414      0.133474      0.147117
O      0.69330      3.69432      1.25058         2.069687     -1.841246      2.570069
O      2.82196      2.47614      2.32552         0.028062     -0.277673      0.740963
O     -1.07478      2.79538      4.83482         0.406394      1.278656     -0.377802
