
# total energy =    -71.57717462

CRYSTAL
PRIMVEC
 4.867465657 -0.000317465 0.000228367
 -2.420411910 4.177267301 0.000564286
 -0.054423627 -0.064806132 5.357953947
PRIMCOORD
9 1 
Si     -0.12693      4.07837      5.29442         0.030500      1.019717      1.531743
Si     -1.07410      1.90789      3.55941        -2.321564      0.604581      0.828613
Si      1.31066      2.16081      1.78237         1.740681      0.716779      2.137838
O      1.43854      1.18733      0.58797         0.491005     -2.368566     -2.008624
O      0.40274      1.70159      3.03168         0.173021     -0.519711      0.006529
O      3.26613      0.45433      4.11045         0.104422      0.363406      0.590976
O      0.80776      3.52624      1.20976        -1.684873      2.596008     -2.032528
O      2.75740      2.47603      2.45279         0.540040     -0.433926     -0.557690
O     -1.28008      3.14667      4.68406         0.915944     -1.995103     -0.499323
