
# total energy =    -71.66576917

CRYSTAL
PRIMVEC
 4.921546542 -0.000320993 0.000230905
 -2.456941163 4.260690933 0.000576110
 -0.009981375 -0.006407808 5.429505580
PRIMCOORD
9 1 
Si     -0.14372      4.24583      0.07765         0.225030     -0.205093     -1.089429
Si     -1.13488      1.99241      3.55445        -0.037429     -0.100527     -0.131446
Si      1.31030      2.25752      1.77643         0.972855     -0.874176      0.112640
O      1.23192      0.95623      0.80669         0.174413      0.197047     -0.858226
O      0.40460      1.91427      3.02127        -1.531631     -0.933906      1.388137
O      3.22041      0.67519      4.32415         0.010005     -0.061554      0.256275
O      0.95931      3.71645      1.24124        -1.797979      0.778962     -2.202421
O      2.83400      2.35383      2.26774         1.534260      0.116913      0.933809
O     -1.09795      3.16590      4.65614         0.452681      1.061559      1.578153
