
# total energy =    -71.72579514

CRYSTAL
PRIMVEC
 4.921237101 -0.000320973 0.000230890
 -2.456298151 4.258912603 0.000575851
 -0.010268293 -0.008377290 5.428368574
PRIMCOORD
9 1 
Si     -0.15776      4.21906      0.01703         0.820634      1.686803      1.091778
Si     -1.15713      2.00151      3.52184         0.405947     -0.931994      3.665064
Si      1.32205      2.26157      1.78339        -0.386470      0.446381      1.866409
O      1.32722      1.04282      0.79512        -0.181976     -1.354722     -1.763006
O      0.37105      1.87133      3.09666         1.502592     -0.275607     -1.389600
O      3.23668      0.63804      4.33868         0.703270      1.399981     -1.271050
O      0.87642      3.70683      1.21240        -0.560108     -0.481703     -0.693620
O      2.86256      2.37107      2.29921        -0.771599      0.917994     -0.739164
O     -1.06879      3.15565      4.71893        -1.511887     -1.392242     -0.737697
