
# total energy =    -71.64570412

CRYSTAL
PRIMVEC
 4.863961583 -0.000317237 0.000228203
 -2.417972313 4.172552095 0.000563636
 -0.056919848 -0.067434885 5.353268953
PRIMCOORD
9 1 
Si     -0.13431      4.05651      5.29092         0.203176      2.409014     -0.566433
Si     -1.06703      1.94427      3.61188        -1.660238     -1.964603     -1.996276
Si      1.33620      2.13276      1.79612         0.378995      1.930461     -0.310064
O      1.43101      1.20462      0.49939         0.170421     -0.843698     -0.124146
O      0.40691      1.68018      3.02196        -0.483651     -0.311020      0.135522
O      3.27772      0.46145      4.08012        -0.586567     -0.189057      1.262344
O      0.72693      3.53657      1.16065         0.800044     -0.715940      1.029095
O      2.74074      2.50691      2.48346         0.893048     -0.439192     -0.576019
O     -1.24181      3.08062      4.68572         0.315905      0.123509      1.173188
