
# total energy =    -71.44846766

CRYSTAL
PRIMVEC
 4.839525850 -0.000315643 0.000227056
 -2.403053336 4.139851354 0.000559029
 -0.076182818 -0.087954865 5.319818976
PRIMCOORD
9 1 
Si     -0.15883      4.11795      0.01137         1.449467      3.115867      1.705499
Si     -1.08513      1.75383      3.48306        -0.229493     -0.726479      0.477113
Si      1.29815      2.35417      1.74604         0.934162     -2.945117      0.856025
O      1.30841      1.29660      0.47398         0.720128     -0.960465     -0.679161
O      0.36068      1.49934      2.81415         0.451395      0.692201      0.125507
O      3.17602      0.34263      4.11784         0.209445      0.645137      0.048161
O      0.83136      3.83947      1.44579        -1.882855      0.443168     -2.798874
O      2.83849      2.38567      2.30693        -0.564315      0.450291      0.449199
O     -0.97324      2.75854      4.78232        -1.122448     -0.703779     -0.196800
