
# total energy =    -71.83106686

CRYSTAL
PRIMVEC
 4.848387238 -0.000316221 0.000227472
 -2.408570237 4.151434041 0.000560650
 -0.069196210 -0.080538307 5.331937623
PRIMCOORD
9 1 
Si      2.28054      0.03451      0.02766        -0.049201     -0.874542     -3.409588
Si     -1.08308      1.83271      3.51498        -0.876538     -0.649378      0.516784
Si      1.30931      2.23855      1.77485         0.475600      1.475453     -1.229772
O      1.39626      1.26642      0.47039        -1.088564      0.874000      0.164186
O      0.37511      1.55773      2.86776        -0.317534     -0.147727      0.609467
O      3.25694      0.38208      4.12073        -0.726223      0.258684      0.140686
O      0.69686      3.71094      1.25734         2.111304     -2.087823      2.594220
O      2.82225      2.47139      2.31961         0.081361     -0.238026      0.826421
O     -1.06950      2.78742      4.83068         0.412462      1.382319     -0.208523
