
# total energy =    -71.92672304

CRYSTAL
PRIMVEC
 4.909967994 -0.000320238 0.000230361
 -2.446920389 4.227650707 0.000571218
 -0.025337155 -0.042422538 5.407226638
PRIMCOORD
9 1 
Si     -0.09130      4.17395      5.37749        -0.739634     -1.110420     -0.406612
Si     -1.12181      1.92078      3.59273         0.048545      0.614738      0.191166
Si      1.34514      2.24531      1.78930        -0.213467     -0.330298     -0.871782
O      1.50970      1.19071      0.54767        -0.819060      1.027238      0.908521
O      0.30044      1.67999      2.86219        -1.230030     -0.427256      0.584432
O      3.27400      0.54082      4.19997         0.233633     -1.262115     -0.037213
O      0.82140      3.64521      1.19571         0.062372      0.266583     -0.289941
O      2.64042      2.53184      2.65135         1.061428      0.226410     -0.887688
O     -1.13965      3.01720      4.79398         1.607228      0.989868      0.796978
