
# total energy =    -71.52617987

CRYSTAL
PRIMVEC
 4.924910120 -0.000321212 0.000231062
 -2.460992338 4.267331220 0.000576997
 -0.000945312 0.001967402 5.434530747
PRIMCOORD
9 1 
Si     -0.13005      4.20296      5.37095        -0.068770      1.277241      1.991861
Si      3.76164      2.00422      3.60236         0.594775      0.013574      0.048063
Si      1.37707      2.23900      1.85135        -1.267026      1.331302      2.003750
O      1.44663      1.11890      0.78255         0.808696     -2.679675     -3.004848
O      0.36945      1.84486      3.11986         0.836574     -0.414094     -0.631378
O      3.34066      0.50596      4.18829        -0.467626      1.313937      0.745943
O      0.67653      3.56238      1.24763        -0.298317      0.837158     -1.966593
O      2.82910      2.63444      2.43298        -0.087402     -0.775511     -0.230136
O     -1.21471      3.29567      4.61308        -0.024880     -0.913943      1.046363
