
# total energy =    -71.93199452

CRYSTAL
PRIMVEC
 4.924099879 -0.000321159 0.000231024
 -2.460042159 4.267748567 0.000577109
 -0.002991894 0.002276794 5.434359585
PRIMCOORD
9 1 
Si     -0.15737      4.25301      5.37144        -0.221956     -0.255960      0.939669
Si     -1.12883      2.04265      3.62718         0.239232      0.354322     -1.473201
Si      1.31675      2.23751      1.86087         1.548668     -0.865117      0.033296
O      1.46960      1.09523      0.73198        -0.628618     -0.367091     -0.091157
O      0.44624      1.79186      3.15847        -1.062257      0.175140     -0.024408
O      3.29918      0.68558      4.30152        -0.309267     -1.065344      0.116311
O      0.70717      3.45659      1.07790        -0.501899      1.604070     -0.726999
O      2.84906      2.54145      2.36876         0.208747     -0.419925      0.500396
O     -1.23679      3.24054      4.68289         0.742730      0.879159      0.711705
