
# total energy =    -71.84777667

CRYSTAL
PRIMVEC
 4.919028452 -0.000320828 0.000230786
 -2.452678660 4.247048809 0.000574096
 -0.015015556 -0.023263108 5.421158253
PRIMCOORD
9 1 
Si     -0.14627      4.20714      5.37003        -0.227507     -0.084761      1.503094
Si     -1.09792      1.91846      3.65857         0.340641      0.782254     -1.970245
Si      1.38435      2.27061      1.81538        -0.377622     -0.301698     -0.224226
O      1.49442      1.28789      0.50531         0.105326     -0.497171      0.277819
O      0.39550      1.65510      2.94609        -1.906053     -0.132717      1.182780
O      3.23936      0.50404      4.15619         0.365821     -0.549311      0.496363
O      0.68841      3.61750      1.27281        -0.468798      1.286816     -1.657093
O      2.75974      2.59326      2.57399         0.975240     -0.596053     -0.325379
O     -1.19621      3.09398      4.78286         1.181435      0.085871      0.688442
