
# total energy =    -71.77461429

CRYSTAL
PRIMVEC
 4.875026926 -0.000317959 0.000228722
 -2.425747387 4.187980250 0.000565774
 -0.048660536 -0.058423540 5.368146550
PRIMCOORD
9 1 
Si     -0.16759      4.11233      5.34649        -0.584586      1.261946      1.038744
Si      3.69381      1.88809      3.56462         2.086128     -0.052550     -2.425402
Si      1.33451      2.25977      1.81213        -0.634703     -0.009571      0.737798
O      1.33645      1.11842      0.72012         0.360655     -2.122510     -2.684755
O      0.37842      1.69771      3.02384         0.027785      0.452233     -0.036058
O      3.27983      0.50129      4.20526        -1.039228     -0.826879      0.407634
O      0.88043      3.67577      1.16918        -0.415042     -0.419440     -0.093693
O      2.88407      2.38085      2.23331         0.334160      0.238949      1.344322
O     -1.13606      3.02079      4.65230        -0.155184      1.464113      1.728302
