
# total energy =    -71.71812287

CRYSTAL
PRIMVEC
 4.875890717 -0.000318015 0.000228763
 -2.426331371 4.189259740 0.000565955
 -0.048054944 -0.057617862 5.369292776
PRIMCOORD
9 1 
Si     -0.18813      4.11120      5.34859         0.489852      2.055290      1.975273
Si      3.70369      1.89307      3.56275         1.598500     -0.425826     -2.169976
Si      1.32669      2.26954      1.81069         0.225001     -0.479792      0.988246
O      1.30341      1.11952      0.72552         0.679378     -2.402792     -2.751160
O      0.37093      1.70317      3.01649         0.369817      0.368308      0.051394
O      3.27371      0.49884      4.21551        -0.900004     -0.266073      0.189504
O      0.89741      3.67111      1.17638        -1.093751      0.469156     -0.722955
O      2.91160      2.37608      2.21056        -0.396723      0.163714      1.429591
O     -1.09913      3.01419      4.67094        -0.996676      0.547187      1.025898
