
# total energy =    -71.89415675

CRYSTAL
PRIMVEC
 4.910190796 -0.000320252 0.000230372
 -2.447026078 4.227922507 0.000571257
 -0.025254390 -0.042302460 5.407475257
PRIMCOORD
9 1 
Si     -0.09008      4.17709      5.38275        -0.738620     -0.978579     -0.535628
Si     -1.11941      1.92498      3.59453         0.130747      0.598518     -0.215894
Si      1.34866      2.24070      1.78569        -0.502608     -0.082264     -0.987142
O      1.49723      1.19438      0.54875        -0.567987      0.618354      0.533160
O      0.30722      1.67999      2.85323        -1.790634     -0.489558      0.961503
O      3.27472      0.54722      4.19694         0.058504     -1.479224      0.225188
O      0.82351      3.64528      1.19747         0.025703      0.337731     -0.364366
O      2.62655      2.52523      2.65220         1.774671      0.268324     -0.472490
O     -1.13560      3.01138      4.79823         1.646285      1.185483      0.846826
