
# total energy =    -71.64872538

CRYSTAL
PRIMVEC
 4.885453327 -0.000318639 0.000229211
 -2.432588394 4.202355268 0.000567786
 -0.041260751 -0.050422146 5.381284445
PRIMCOORD
9 1 
Si      2.27488      0.04250      0.02874        -0.596257     -0.234973      0.528513
Si     -1.03347      1.89280      3.55709        -0.373575      0.707007      0.589427
Si      1.38442      2.22744      1.68899        -0.766807      0.656581      3.024264
O      1.09279      1.11919      0.59409         1.965789     -1.799756     -1.335162
O      0.49868      1.72956      3.03415        -0.664252      0.085730     -0.352758
O      3.07080      0.61400      4.19140         0.834730     -0.216193     -0.139182
O      0.84645      3.67731      1.23203        -0.609879      0.996990     -0.888873
O      2.87447      2.35740      2.31612         0.599685      0.277179     -0.253595
O     -1.04435      2.93741      4.85908        -0.380328     -0.462603     -1.142012
