
# total energy =    -71.62542434

CRYSTAL
PRIMVEC
 4.883995523 -0.000318544 0.000229143
 -2.431734819 4.200499144 0.000567525
 -0.042383218 -0.051379100 5.379577868
PRIMCOORD
9 1 
Si      2.27897      0.06144      0.05936        -1.331424     -1.097783     -1.095927
Si     -1.05056      1.87945      3.54596         0.258346      1.337006     -0.161781
Si      1.38248      2.23046      1.71388        -1.420300      0.947989      1.843313
O      1.08096      1.11750      0.62273         2.119864     -2.036622     -1.738982
O      0.49454      1.73537      3.01101        -1.198603     -0.001827      0.326844
O      3.11265      0.61120      4.19802        -0.260661     -1.163783      0.487359
O      0.85731      3.68211      1.20621        -0.301085      0.582241     -0.222991
O      2.86779      2.35786      2.26662         1.745889      0.085432      0.764131
O     -1.05020      2.90334      4.83392         0.359633      1.353485     -0.210690
