
# total energy =    -71.87172020

CRYSTAL
PRIMVEC
 4.896888232 -0.000319384 0.000229748
 -2.439883820 4.213922041 0.000569321
 -0.032013738 -0.046190400 5.393290630
PRIMCOORD
9 1 
Si     -0.14382      4.16179      5.36344        -0.941195      0.386305      1.195198
Si      3.75876      1.89448      3.53655        -0.265881      0.775909      2.937566
Si      1.35449      2.25865      1.84613        -0.150494     -0.134553      0.021612
O      1.44562      1.25730      0.61219         0.585522     -2.219034     -1.318097
O      0.35626      1.69339      3.02749         1.442335     -0.020821     -0.651624
O      3.21556      0.44583      4.12360         0.372534      1.035688     -0.386052
O      0.78085      3.59063      1.19310        -0.345099      1.539832     -0.273173
O      2.87149      2.52482      2.36453        -0.656369      0.034103      0.166125
O     -1.16697      3.02207      4.84452        -0.037518     -1.402837     -1.704069
