
# total energy =    -71.75601621

CRYSTAL
PRIMVEC
 4.922422234 -0.000321050 0.000230946
 -2.457906502 4.265316068 0.000576815
 -0.007147550 -0.000763584 5.432463332
PRIMCOORD
9 1 
Si      2.28247      0.03474      0.01527         0.795626     -0.164706      1.888279
Si     -1.12523      2.07308      3.66406         1.075972     -1.420840     -2.601696
Si      1.37506      2.19750      1.76971        -0.804463      0.744662      2.098927
O      1.14617      0.99973      0.75453         1.625279     -1.709582     -1.487314
O      0.39315      1.82016      3.04094        -0.526339      0.324256      0.671236
O      3.20258      0.75040      4.35792         0.188638     -0.019313     -0.023387
O      0.93896      3.56506      1.06507        -1.620925      1.660319     -1.161838
O      2.89674      2.34658      2.31732        -0.086328      0.284738      0.206821
O     -1.10800      3.22594      4.72871        -0.655344      0.326679      0.395005
