
# total energy =    -71.70638294

CRYSTAL
PRIMVEC
 4.923659521 -0.000321131 0.000231004
 -2.459418139 4.267327391 0.000577070
 -0.004495245 0.001488370 5.433927319
PRIMCOORD
9 1 
Si      2.30583      0.00699      5.41503        -1.607469      0.773855     -0.125327
Si     -1.08333      2.06102      3.58739        -2.065862      0.391763      2.604329
Si      1.32113      2.22470      1.85695         0.804664      0.112545     -0.899211
O      1.36308      1.11223      0.71353         0.117582     -1.458201     -0.091834
O      0.41444      1.77510      3.14064         0.957523      0.296737     -0.802321
O      3.24454      0.76044      4.36935         0.677593     -0.139174     -1.160826
O      0.76344      3.44766      0.96149         1.066031      0.080606      2.270875
O      2.86686      2.43244      2.35365        -0.262689      0.439813     -0.120722
O     -1.21342      3.22741      4.77850         0.351667     -0.528804     -1.695149
