
# total energy =    -71.73287361

CRYSTAL
PRIMVEC
 4.919470314 -0.000320857 0.000230807
 -2.453984967 4.252499675 0.000574919
 -0.012229600 -0.015521555 5.424136909
PRIMCOORD
9 1 
Si      2.28163      0.00492      5.36685         0.185573      0.077126      1.172846
Si     -1.08118      2.00491      3.63425        -1.473160     -0.730741      1.362075
Si      1.35732      2.24300      1.83786         0.345938      0.511750      0.519110
O      1.40931      1.26084      0.55870         0.730529     -1.464282     -0.039474
O      0.39430      1.68504      3.08626         1.167167      0.450516     -0.987702
O      3.28667      0.49150      4.19181         0.381608      1.722631     -0.475850
O      0.66417      3.49854      1.11684         0.313524      1.470505      0.765327
O      2.87912      2.58125      2.44843        -1.356596     -0.574769     -0.519466
O     -1.19712      3.12798      4.86916        -0.286814     -1.454742     -1.788730
