
# total energy =    -71.88760119

CRYSTAL
PRIMVEC
 4.920995278 -0.000320957 0.000230879
 -2.455913386 4.257969677 0.000575716
 -0.010508711 -0.009489623 5.427746238
PRIMCOORD
9 1 
Si     -0.16640      4.21313      5.42417         0.491385      1.514426      0.211442
Si      3.75646      1.99510      3.54368         0.843385     -0.422294      2.808796
Si      1.32607      2.26546      1.80894        -0.700524      0.177220      0.368908
O      1.37257      1.05821      0.75031        -0.857336      0.256927     -0.509710
O      0.37582      1.84095      3.11349         1.374152     -0.051413     -1.551689
O      3.25844      0.64654      4.32281         0.113934      0.384767     -0.829022
O      0.81505      3.70014      1.17312         0.893806     -1.782538      0.861378
O      2.87059      2.39666      2.30675        -0.842811      0.892479     -0.553673
O     -1.07989      3.13013      4.74429        -1.309668     -0.994762     -0.841474
