
# total energy =    -71.69366835

CRYSTAL
PRIMVEC
 4.868583276 -0.000317538 0.000228420
 -2.421233456 4.178757402 0.000564489
 -0.053613522 -0.064016025 5.359423473
PRIMCOORD
9 1 
Si     -0.12320      4.09478      5.30335        -0.395282     -0.136026      1.201214
Si     -1.09098      1.89653      3.54304        -1.559984      0.859459      1.662692
Si      1.31151      2.17786      1.78975         1.590977     -0.225509      1.094221
O      1.44723      1.15446      0.59533        -0.209411     -0.610717     -0.647596
O      0.40168      1.70321      3.03573         0.146516     -0.443908     -0.086632
O      3.26104      0.45412      4.12971         0.482350      0.596713      0.012982
O      0.82065      3.54446      1.20946        -1.476440      2.201004     -1.868687
O      2.77019      2.46051      2.43704         0.206255     -0.211101     -0.800078
O     -1.28487      3.15048      4.68090         1.240184     -2.036211     -0.571129
